Input file: book-war-and-peace.txt
Output file: indexes.txt
Number of words: 572621
Number of indexes: 17541
Shortest word: I
Longest word: characteristically
Time: 433ms
000: [19763, 19764, 19765, 19766, 19767, 19768, 19769, 13487]
07: [18176]
1: [62768, 63600, 18769, 57057, 63025, 62482, 23155, 36147, 22980, 59477, 63029, 22998, 52727, 62007, 63495, 34937, 8922, 63338, 63594, 63547, 62285]
10: [23748, 23, 21943, 19768, 34938]
100: [19769, 34939]
102: [41283, 41286]
11: [25603, 53605, 5673, 6525, 52862]
110: [34939]
12: [28226]
120: [34939]
13: [34920, 56447]
130: [34939]
13TH: [4739, 47722, 47647]
140: [34939]
15: [12994, 19765, 54249]
150: [19766, 34939]
15Y: [54249]
160: [34939, 13487]
17: [50401]
178: [31868]
1789: [62193, 62195, 62025]
1797: [37852]
17TH: [22963]
18: [8337, 34920]
1805: [10688, 33457, 5667, 25267, 11204, 33796, 59620, 37157, 20758, 23478, 22295, 10856, 5673, 19401, 10, 10523, 19355, 59579, 5660, 33596, 9006, 13662, 40894]
1806: [18176, 15409, 33653, 15402, 19130, 59579, 62476, 19357, 17231, 17295]
1807: [62082, 59620, 33989, 25624, 33448, 58153, 32779, 59579, 19820, 19406, 33438, 28767, 36223]
1808: [21943, 21918, 22751, 37167]
1809: [48674, 23363, 23748, 59620, 22086, 21927, 22826, 47434, 31867, 59580, 21981, 22269, 22413, 23469, 62477, 25630]
1810: [25603, 42996, 25644]
1811: [28226, 62083, 31831, 57784, 31834, 28555, 59580]
1812: [31824, 33088, 35857, 49105, 60993, 62193, 56258, 56978, 34947, 39827, 51891, 54083, 56387, 56995, 33956, 34532, 31813, 31957, 35893, 35909, 43797, 51877, 54102, 54182, 62838, 43255, 61543, 31832, 37880, 36585, 54265, 41274, 56970, 59322, 31835, 57003, 35884, 57932, 58300, 59308, 62028, 52013, 54045, 51838, 56318, 62302, 37167, 46655, 49647, 53727, 56447, 56991]
1813: [60080, 54161, 60610, 62212, 62216, 56970, 58298, 59322, 59755, 52604, 53564, 59262]
1815: [59706]
1820: [60610, 60358, 60087, 59326]
18TH: [892]
1ST: [41228]
2: [6497, 18769, 39265, 54977, 63601, 6562, 49394, 57058, 62290, 62770, 63554, 63027, 22980, 23060, 23156, 46020, 52084, 63508, 20469, 56229, 62486, 3223, 22999, 49399, 59479, 6568, 8552, 62008, 34937, 6506, 20474, 23082, 52730, 56234, 63034, 39259, 46027, 54971, 63595, 63340, 8574, 3215]
20: [34938, 59262]
217: [5906]
22: [54324, 54347]
22ND: [36577]
23: [7120]
23RD: [23017]
24: [41235, 54292]
24TH: [23143]
25: [40561, 40998]
25TH: [9006]
26: [19406]
27: [21543]
27TH: [23160]
3: [3216, 18770, 57058, 63603, 23156, 22981, 63559, 23000, 59480, 63528, 3225, 34937, 62490, 63597, 52734, 63342]
30: [41235, 19764, 34938, 52013, 13662]
31: [46537]
3RD: [23217, 52853, 41241, 41242]
4: [3217, 52737, 61569, 18770, 34937, 54249, 3227]
40: [34938]
4TH: [19575]
4X: [54249]
5: [18770, 52739, 34937, 61594]
50: [34938]
6: [10688, 18771, 28566, 34937, 41274, 55131]
60: [34938]
62: [41239]
666: [34945, 34963, 34967, 34953, 35017, 34942]
671: [34960]
6TH: [55204, 55135]
7: [18771, 23, 34937]
70: [19767, 34938]
700: [25835]
7TH: [23257]
8: [41237, 34937]
80: [19763, 34938]
800: [17668, 17657]
86TH: [50718]
8TH: [41242]
9: [56082, 34937, 52859]
90: [34939]
9TH: [23290]
A: [176, 192, 288, 464, 576, 640, 912, 912, 944, 1088, 1088, 1168, 1280, 1456, 1712, 1856, 1856, 2000, 2000, 2016, 2208, 2224, 2256, 2384, 2496, 2512, 2576, 2672, 2688, 2800, 2864, 2896, 2992, 3152, 3216, 3264, 3664, 3664, 3888, 3984, 3984, 4048, 4144, 4224, 4512, 4608, 4656, 4768, 4896, 5360, 5456, 5776, 5824, 5840, 5872, 5952, 5984, 6032, 6336, 6384, 6528, 6656, 6688, 6784, 6864, 6880, 7136, 7136, 7168, 7168, 7232, 7280, 7296, 7312, 7312, 7472, 7472, 7504, 7504, 7584, 7648, 7664, 7760, 7824, 7904, 8048, 8160, 8176, 8224, 8704, 8736, 8912, 8960, 9168, 9168, 9184, 9184, 9344, 9408, 9456, 9488, 9536, 9680, 9680, 9840, 9872, 9872, 9872, 9872, 10000, 10160, 10272, 10272, 10320, 10352, 10496, 10512, 10560, 10784, 10800, 10816, 10912, 10912, 11056, 11264, 11376, 11536, 11536, 11888, 11984, 12048, 12480, 12496, 12672, 12800, 12816, 12880, 13088, 13248, 13264, 13264, 13440, 13520, 13536, 13536, 13680, 13728, 13776, 13792, 13840, 13936, 14000, 14000, 14064, 14144, 14160, 14224, 14240, 14272, 14304, 14400, 14416, 14416, 14560, 14576, 14736, 15008, 15040, 15520, 15616, 15648, 15888, 16016, 16096, 16112, 16368, 16480, 16688, 17040, 17152, 17456, 17568, 18032, 18048, 18144, 18272, 18304, 18448, 18496, 18544, 18624, 18640, 18736, 18752, 18832, 19056, 19664, 19760, 19808, 19872, 19920, 19920, 20096, 20112, 20144, 20144, 20320, 20496, 20624, 20624, 20688, 20768, 20832, 20944, 21008, 21040, 21040, 21248, 21344, 21408, 21488, 21552, 21600, 21616, 21680, 21728, 21776, 21840, 22112, 22256, 22288, 22304, 22416, 22736, 22752, 22960, 23056, 23072, 23168, 23200, 23552, 23712, 23760, 23856, 24016, 24096, 24112, 24336, 24336, 24352, 24352, 24368, 24400, 24464, 24768, 24816, 24832, 24832, 25008, 25328, 25344, 25344, 25408, 25456, 25616, 25792, 25808, 26080, 26096, 26112, 26176, 26352, 26384, 26448, 26464, 26480, 26544, 26576, 26688, 26768, 26896, 26976, 27232, 27280, 27472, 27504, 27584, 27584, 27648, 27776, 28032, 28240, 28432, 28464, 28512, 28816, 28976, 28976, 29024, 29056, 29088, 29200, 29216, 29312, 29456, 29456, 29536, 29536, 29584, 29584, 29680, 29872, 30048, 30240, 30416, 30416, 30464, 30464, 30528, 30592, 30592, 30672, 30768, 30768, 30896, 30960, 31248, 31712, 31904, 31904, 31936, 31936, 31952, 32032, 32208, 32256, 32384, 32384, 32384, 32512, 32528, 32720, 33024, 33344, 33376, 33488, 33504, 33520, 33632, 33952, 34032, 34112, 34416, 34624, 34736, 34848, 34896, 34928, 34992, 35184, 35248, 35408, 35424, 35520, 35568, 35680, 35872, 36000, 36048, 36048, 36144, 36224, 36240, 36304, 36304, 36544, 36592, 36608, 36688, 36800, 36832, 37184, 37232, 37232, 37376, 37488, 37568, 37568, 37824, 37968, 38192, 38560, 38608, 38912, 38912, 38928, 38960, 39056, 39120, 39200, 39216, 39360, 39632, 39664, 39936, 40032, 40048, 40240, 40464, 40496, 40592, 40608, 41104, 41200, 41360, 41536, 41536, 41568, 41568, 41616, 41728, 41744, 41808, 41904, 41936, 42032, 42144, 42336, 42432, 42448, 42592, 42640, 42672, 42704, 42704, 42736, 42848, 42864, 42912, 42928, 43136, 43472, 43616, 43632, 43712, 43728, 43888, 43936, 43952, 43984, 44032, 44176, 44176, 44192, 44592, 44656, 44864, 44896, 44976, 45008, 45008, 45104, 45104, 45184, 45248, 45248, 45312, 45392, 46016, 46256, 46256, 46256, 46432, 46480, 46544, 46672, 46704, 46864, 46912, 46976, 47056, 47136, 47152, 47168, 47216, 47232, 47440, 47744, 47760, 47792, 47840, 48016, 48448, 48448, 48720, 48752, 48752, 48768, 48816, 48944, 48960, 48960, 49040, 49136, 49168, 49264, 49280, 49328, 49328, 49424, 49664, 49696, 50160, 50320, 50336, 50400, 50464, 50480, 50544, 50592, 50640, 50688, 50688, 50768, 50896, 50928, 50960, 50960, 50976, 50992, 50992, 51296, 51440, 51504, 51824, 51968, 52016, 52112, 52224, 52256, 52336, 52336, 52576, 52688, 52816, 52848, 52848, 53040, 53056, 53056, 53280, 53520, 53664, 54064, 54096, 54304, 54416, 54416, 54608, 54640, 54656, 54864, 54992, 55056, 55168, 55392, 55392, 55424, 55424, 55552, 55552, 55664, 55904, 56032, 56144, 56160, 56608, 56608, 56944, 57088, 57136, 57344, 57504, 57504, 57552, 57568, 57648, 57872, 57888, 58160, 58256, 58448, 58464, 58560, 58768, 58896, 58912, 59008, 59200, 59424, 59424, 59488, 59536, 59552, 59728, 59728, 59728, 59776, 60048, 60096, 60272, 60288, 60288, 60320, 60480, 60560, 60624, 60720, 60816, 60896, 61024, 61040, 61040, 61168, 61248, 61328, 61616, 61664, 61664, 61744, 61760, 61824, 61888, 61904, 62000, 62000, 62080, 62112, 62112, 62192, 62256, 62320, 62336, 62352, 62352, 62512, 62528, 62544, 62560, 62624, 62640, 62640, 62640, 62832, 62864, 62912, 62912, 62928, 62944, 62944, 63056, 63104, 63120, 63136, 63312, 63392, 63440, 63568, 97, 193, 305, 321, 353, 353, 353, 385, 513, 849, 1089, 1185, 1329, 1377, 1473, 1473, 1473, 1505, 1521, 1761, 2033, 2177, 2289, 2305, 2817, 2929, 3121, 3121, 3153, 3393, 3521, 3745, 3905, 3969, 4065, 4129, 4241, 4305, 4481, 4545, 4593, 5105, 5105, 5137, 5137, 5329, 5377, 5377, 5697, 5761, 5793, 5873, 5921, 5921, 6017, 6097, 6241, 6497, 6529, 6593, 6673, 6721, 6721, 6769, 6817, 7105, 7313, 7313, 7361, 7377, 7537, 7569, 7601, 7809, 7825, 7889, 8001, 8049, 8177, 8241, 8273, 8625, 8657, 8881, 8881, 8961, 9089, 9233, 9377, 9521, 9521, 9633, 9697, 9713, 9809, 9873, 9905, 9969, 10113, 10289, 10705, 10769, 10785, 10865, 10961, 10977, 11281, 11313, 11457, 11537, 11585, 11825, 11841, 11857, 12193, 12241, 12449, 12481, 12561, 12641, 12705, 12753, 13105, 13153, 13201, 13313, 13313, 13345, 13345, 13361, 13361, 13441, 13473, 13745, 13745, 13777, 13873, 14001, 14001, 14065, 14145, 14193, 14273, 14305, 14337, 14561, 14609, 14657, 14865, 15217, 15249, 15265, 15265, 15633, 15697, 15745, 15825, 15953, 15985, 16017, 16033, 16145, 16177, 16225, 16273, 16273, 16353, 16465, 16545, 16625, 16993, 17025, 17121, 17233, 17313, 17329, 17425, 17457, 17553, 17665, 17681, 17713, 17889, 17969, 18033, 18241, 18273, 18289, 18657, 18673, 18689, 18737, 18785, 18785, 18801, 18897, 18913, 18961, 19009, 19041, 19105, 19137, 19313, 19313, 19313, 19361, 19377, 19425, 19425, 19521, 19633, 19841, 19873, 19921, 19937, 19953, 20113, 20129, 20401, 20481, 20609, 20865, 21025, 21025, 21249, 21297, 21457, 21873, 22113, 22129, 22289, 22417, 22481, 22481, 22609, 22673, 22737, 22785, 22897, 22913, 22977, 23089, 23121, 23169, 23185, 23201, 23249, 23281, 23345, 23457, 23697, 24065, 24097, 24113, 24369, 24417, 24513, 24609, 24705, 24721, 25185, 25313, 25329, 25345, 25345, 25569, 25569, 25601, 25713, 25729, 26001, 26001, 26033, 26049, 26161, 26417, 26433, 26545, 26625, 26801, 26897, 26897, 27249, 27313, 27409, 27409, 27425, 27633, 27841, 27841, 27921, 27937, 27937, 27969, 27985, 28033, 28113, 28209, 28241, 28273, 28337, 29073, 29537, 29681, 29697, 29905, 30113, 30641, 30689, 30689, 30753, 30881, 31009, 31201, 31585, 31601, 31601, 32369, 32385, 32561, 32609, 32609, 32625, 32657, 32929, 33025, 33073, 33233, 33281, 33377, 33553, 33585, 33809, 33857, 34065, 34257, 34353, 34449, 34481, 34481, 34481, 34689, 34705, 34705, 34897, 35393, 35473, 35505, 35569, 35601, 35729, 35809, 35825, 35825, 35889, 36145, 36369, 36417, 36657, 36689, 36721, 36737, 36913, 36929, 37073, 37105, 37169, 37345, 37569, 37617, 37809, 37905, 37921, 37921, 37953, 38001, 38097, 38577, 38577, 38737, 38929, 39105, 39137, 39169, 39313, 39377, 39665, 39825, 40113, 40289, 40529, 40529, 40641, 40753, 40801, 40881, 40977, 41121, 41537, 41569, 41569, 41617, 41841, 41857, 41889, 42033, 42321, 42321, 42481, 42481, 42881, 42993, 43089, 43089, 43265, 43409, 43425, 43489, 43745, 43857, 44001, 44177, 44273, 44465, 44497, 44817, 45169, 45185, 45201, 45361, 45505, 45825, 45825, 45825, 45857, 46049, 46129, 46129, 46145, 46273, 46353, 46385, 46385, 46401, 46449, 46593, 46785, 46961, 47137, 47137, 47137, 47201, 47217, 47217, 47457, 47713, 47825, 47841, 48001, 48081, 48129, 48289, 48305, 48481, 48481, 48497, 48561, 48625, 48737, 48737, 48801, 48817, 48865, 48865, 48881, 48881, 48881, 48945, 49057, 49073, 49137, 49153, 49201, 49473, 49489, 49553, 49569, 49601, 49681, 49889, 49937, 50081, 50129, 50545, 50545, 50593, 50753, 50817, 51009, 51105, 51169, 51553, 51553, 51569, 51681, 51745, 51889, 52065, 52065, 52145, 52241, 52257, 52257, 52273, 52289, 52561, 52561, 52641, 52785, 52897, 53233, 53313, 53345, 53361, 53505, 53569, 53633, 53697, 53729, 53809, 53889, 53969, 53969, 53985, 54161, 54177, 54177, 54305, 54401, 54417, 54417, 54689, 54737, 54897, 55137, 55265, 55345, 55457, 55521, 55537, 55569, 55761, 55873, 56001, 56065, 56337, 56433, 56465, 56465, 56529, 56609, 56641, 56737, 56737, 56737, 56785, 56801, 56865, 56945, 56961, 56993, 57281, 57361, 57457, 57521, 57729, 57825, 58033, 58113, 58145, 58209, 58417, 58465, 58481, 58769, 58961, 59089, 59121, 59233, 59297, 59441, 59553, 59617, 59617, 59633, 59729, 59841, 59889, 60017, 60177, 60289, 60321, 60369, 60449, 60641, 60721, 60721, 60801, 60849, 60913, 60993, 61089, 61105, 61169, 61633, 61665, 61729, 61793, 61953, 61969, 61985, 62097, 62113, 62177, 62273, 62433, 62433, 62721, 62897, 62961, 63121, 63233, 63233, 63393, 63505, 63521, 63537, 63841, 130, 194, 210, 210, 274, 338, 386, 754, 770, 898, 930, 1010, 1010, 1026, 1234, 1346, 1410, 1458, 1746, 1778, 1778, 1842, 1874, 1890, 1938, 1954, 2002, 2018, 2050, 2082, 2258, 2258, 2290, 2530, 2562, 2674, 2770, 2786, 3074, 3186, 3234, 3234, 3394, 3538, 3586, 3650, 3682, 3682, 3714, 3730, 3730, 3730, 3826, 3874, 3922, 3986, 4274, 4306, 4306, 4370, 4370, 4610, 4690, 4850, 5090, 5410, 5426, 5890, 6018, 6242, 6274, 6386, 6450, 6450, 6530, 6722, 6754, 6834, 7154, 7154, 7298, 7314, 7410, 7554, 7730, 7746, 7762, 7906, 7986, 8050, 8066, 8130, 8322, 8402, 8642, 8658, 8658, 8658, 8706, 8866, 8866, 8898, 8946, 9138, 9186, 9218, 9378, 9426, 9426, 9458, 9506, 9522, 9634, 9634, 9698, 10018, 10098, 10098, 10098, 10098, 10162, 10322, 10466, 10482, 10530, 10706, 10754, 10914, 10930, 10994, 11138, 11154, 11218, 11282, 11378, 11378, 11474, 11554, 11586, 11586, 11666, 12050, 12322, 12322, 12434, 12530, 12658, 12690, 12738, 12866, 12930, 13138, 13154, 13234, 13490, 13538, 13762, 13890, 14114, 14162, 14242, 14450, 14450, 14450, 14738, 14866, 15074, 15138, 15282, 15298, 15490, 15586, 15650, 15778, 15810, 15842, 15874, 16098, 16194, 16274, 16290, 16402, 16402, 16626, 16722, 16754, 17042, 17042, 17058, 17090, 17122, 17122, 17234, 17250, 17282, 17314, 17394, 17394, 17522, 17522, 17538, 17666, 17698, 17858, 18034, 18034, 18226, 18226, 18242, 18402, 18498, 18626, 18658, 18706, 18754, 18914, 18962, 18962, 18962, 19010, 19138, 19218, 19314, 19378, 19426, 19506, 19554, 19634, 19650, 19922, 20130, 20146, 20146, 20258, 20274, 20450, 20546, 20594, 20770, 20786, 20850, 20866, 20994, 21026, 21090, 21186, 21250, 21298, 21442, 21650, 21762, 21858, 21858, 22146, 22226, 22322, 22482, 22530, 22882, 22994, 23074, 23154, 23170, 23250, 23250, 23506, 23586, 23794, 23970, 24002, 24002, 24322, 24386, 24498, 24546, 24578, 24578, 24690, 24962, 25362, 25362, 25378, 25410, 25410, 25442, 25442, 25554, 25618, 25714, 25922, 26034, 26210, 26274, 26290, 26434, 26434, 26450, 26450, 26450, 26610, 26610, 26754, 26754, 26802, 26818, 26898, 26962, 27042, 27218, 27346, 27410, 27458, 27714, 27842, 27954, 28258, 28354, 28386, 28386, 28402, 28466, 28530, 28578, 28610, 28962, 29026, 29058, 29138, 29186, 29330, 29330, 29506, 29506, 29634, 29634, 29794, 30370, 30370, 30482, 30658, 30818, 30914, 30914, 31090, 31106, 31442, 31458, 31474, 31506, 32050, 32194, 32274, 32290, 32322, 32322, 32386, 32402, 32514, 32514, 32722, 33090, 33266, 33330, 33330, 33346, 33570, 33570, 33586, 33634, 33666, 33714, 33778, 33842, 33842, 33842, 33858, 34050, 34194, 34322, 34562, 34594, 34594, 34610, 34706, 34978, 35058, 35282, 35362, 35362, 35378, 35426, 35458, 35522, 35570, 35634, 35634, 35682, 35698, 35714, 35714, 35730, 35778, 35842, 35874, 35874, 35938, 36082, 36402, 36418, 36418, 36418, 36562, 36658, 36658, 36690, 36834, 36834, 36898, 36914, 36962, 37042, 37042, 37058, 37186, 37282, 37298, 37346, 37826, 38002, 38434, 38498, 38498, 38658, 38674, 38882, 38914, 38946, 39074, 39074, 39122, 39186, 39314, 39410, 39586, 40306, 40530, 40562, 40610, 40770, 41090, 41154, 41346, 41426, 41522, 41570, 41570, 41586, 41586, 41618, 41730, 41762, 41778, 41858, 41858, 41890, 41890, 41986, 42066, 42322, 42370, 42370, 42386, 42706, 42770, 42770, 42866, 42898, 42914, 42946, 43090, 43170, 43234, 43266, 43282, 43538, 43570, 43602, 43858, 43874, 44098, 44210, 44210, 44242, 44498, 44498, 44626, 44882, 44994, 45154, 45298, 45298, 45362, 45490, 45538, 45634, 45698, 45938, 46082, 46146, 46274, 46386, 46898, 46898, 46978, 47234, 47282, 47346, 47490, 47602, 47634, 47634, 47714, 47730, 47762, 47858, 47954, 48306, 48306, 48370, 48370, 48402, 48562, 48674, 48754, 48802, 48850, 48850, 48882, 48946, 49058, 49266, 49298, 49410, 49442, 49570, 49570, 49650, 49698, 49794, 49938, 49986, 50466, 50546, 50658, 50674, 50674, 50706, 50770, 50770, 50786, 50866, 50930, 50978, 51106, 51170, 51250, 51410, 51506, 51666, 51778, 51858, 52066, 52242, 52434, 52514, 52562, 52594, 52802, 52802, 52818, 52946, 53010, 53010, 53026, 53090, 53090, 53154, 53250, 53554, 53554, 53634, 54034, 54098, 54306, 54546, 54786, 54834, 54866, 54866, 54882, 54930, 55122, 55218, 55538, 55842, 56018, 56194, 56226, 56242, 56306, 56386, 56402, 56402, 56514, 56594, 56738, 56818, 56850, 56882, 56962, 57122, 57298, 57330, 57362, 57394, 57410, 57538, 57602, 57602, 57682, 57730, 57826, 57890, 57970, 58082, 58114, 58130, 58130, 58466, 58482, 58722, 58770, 58786, 59314, 59426, 59570, 59730, 59842, 59890, 60098, 60130, 60290, 60290, 60706, 60754, 60770, 60898, 60946, 61026, 61170, 61202, 61218, 61234, 61250, 61314, 61346, 61394, 61442, 61442, 61474, 61682, 61730, 61746, 62066, 62130, 62178, 62242, 62450, 62514, 62514, 62546, 62626, 62658, 62706, 62706, 62818, 63186, 63202, 63282, 63442, 63570, 63698, 63842, 19, 291, 307, 307, 339, 403, 707, 819, 979, 1107, 1203, 1299, 1363, 1443, 1731, 1731, 1731, 1779, 1779, 1955, 1987, 2019, 2371, 2451, 2499, 2547, 2563, 2595, 2675, 2707, 2835, 2867, 3171, 3571, 3667, 3779, 3987, 3987, 4035, 4099, 4227, 4323, 4547, 4563, 4563, 4643, 4707, 4899, 5107, 5171, 5187, 5219, 5251, 5267, 5299, 5523, 5539, 5667, 5795, 5891, 5923, 5939, 6035, 6051, 6307, 6371, 6467, 6499, 6531, 6547, 6675, 6691, 6787, 6867, 6979, 7011, 7059, 7155, 7235, 7251, 7251, 7267, 7283, 7411, 7555, 7731, 7731, 7843, 7859, 7891, 7891, 7923, 8115, 8259, 8259, 8291, 8451, 8547, 8563, 8739, 8739, 9171, 9315, 9347, 9347, 9587, 9859, 9875, 9987, 10099, 10147, 10259, 10323, 10355, 10515, 10579, 10595, 10771, 10803, 10883, 10899, 10915, 10947, 10979, 11043, 11043, 11123, 11203, 11299, 11347, 11491, 11507, 11523, 11523, 11523, 11747, 11827, 12035, 12051, 12051, 12083, 12243, 12643, 12675, 12755, 12819, 12883, 13235, 13299, 13347, 13379, 13523, 13555, 13571, 13683, 13811, 13811, 13875, 13891, 13939, 13955, 13987, 14115, 14195, 14243, 14259, 14419, 14451, 14627, 14963, 15059, 15091, 15123, 15411, 15459, 15459, 15523, 15683, 15795, 16067, 16163, 16355, 16435, 16531, 16611, 16659, 16723, 16723, 16755, 17347, 17635, 17699, 17747, 18147, 18259, 18355, 18531, 18563, 18579, 18659, 18739, 18803, 18851, 18899, 18947, 18963, 18963, 18963, 19011, 19139, 19171, 19171, 19219, 19427, 19859, 19923, 19939, 19955, 20083, 20179, 20291, 20307, 20387, 20579, 20723, 20739, 20755, 20819, 20995, 21059, 21091, 21091, 21187, 21187, 21443, 21539, 21555, 21619, 21651, 21683, 21715, 21715, 21715, 21715, 21827, 21859, 21875, 22115, 22419, 22483, 22483, 22531, 22563, 22739, 22739, 22803, 22835, 22851, 22931, 23027, 23027, 23107, 23475, 23667, 23731, 23763, 23763, 23843, 23907, 23907, 24099, 24147, 24163, 24195, 24243, 24467, 24483, 24675, 24899, 24995, 25123, 25555, 25587, 25587, 25619, 25635, 25667, 25747, 25907, 26035, 26099, 26211, 26211, 26275, 26275, 26643, 26707, 26723, 26851, 26931, 26963, 27011, 27155, 27283, 27491, 27507, 27555, 27619, 27747, 27747, 27843, 28035, 28179, 28211, 28307, 28499, 28547, 28579, 28611, 28787, 28899, 29011, 29011, 29123, 29155, 29459, 29539, 29619, 29619, 29619, 29827, 29891, 29923, 30323, 30371, 30371, 30723, 30835, 30915, 30915, 30931, 30995, 31059, 31203, 31315, 31427, 31475, 31891, 31891, 31955, 32147, 32147, 32163, 32211, 32227, 32275, 32291, 32387, 32435, 32611, 32707, 33235, 33299, 33347, 33475, 33571, 33667, 33747, 33779, 33811, 33827, 33923, 33955, 33987, 34051, 34051, 34067, 34067, 34131, 34243, 34307, 34355, 34467, 34627, 34659, 34739, 34803, 34915, 34995, 35027, 35059, 35363, 35427, 35459, 35555, 35635, 35683, 36147, 36291, 36419, 36467, 36595, 36675, 36723, 36739, 36835, 36995, 37059, 37059, 37075, 37379, 37427, 37475, 37523, 37539, 37635, 37699, 37715, 37779, 37955, 38339, 38387, 38531, 38531, 38547, 38579, 38691, 38723, 38851, 38963, 39107, 39187, 39331, 39331, 39411, 39763, 39763, 39795, 39795, 39827, 39891, 39955, 39971, 40275, 40307, 40307, 40419, 40435, 40435, 40467, 40547, 40563, 40627, 40723, 40755, 40771, 40963, 41059, 41171, 41443, 41619, 42099, 42307, 42323, 42339, 42419, 42435, 42739, 42771, 42771, 42803, 42803, 42803, 42915, 42979, 43171, 43283, 43363, 43411, 43459, 43507, 43539, 43587, 43795, 43955, 44051, 44195, 44211, 44323, 44499, 44499, 44515, 44723, 44803, 44819, 44819, 44851, 45139, 45139, 45363, 45779, 45859, 45875, 45939, 45939, 46067, 46083, 46131, 46387, 46419, 46419, 46531, 46787, 46803, 46835, 46947, 47283, 47283, 47459, 47475, 47667, 47763, 48035, 48067, 48307, 48467, 48499, 48755, 48819, 48899, 48931, 49043, 49075, 49235, 49283, 49331, 49347, 49475, 49491, 49587, 49619, 49651, 49651, 49715, 49747, 49779, 49811, 50211, 50227, 50275, 50563, 50579, 50675, 50835, 50899, 51171, 51267, 52083, 52131, 52195, 52515, 52515, 52611, 52819, 52915, 52947, 53011, 53155, 53251, 53379, 53475, 53475, 53635, 53875, 53971, 54083, 54147, 54227, 54419, 54419, 54499, 54611, 54691, 54691, 54707, 54835, 54947, 54963, 54979, 55363, 55379, 55411, 55427, 55427, 55555, 55619, 55651, 55779, 55827, 55843, 55859, 55875, 55971, 56899, 56915, 56963, 56995, 57139, 57251, 57331, 57347, 57555, 57555, 57571, 57635, 57683, 57811, 58003, 58259, 58339, 58435, 58467, 58515, 58531, 58675, 58691, 59027, 59427, 59491, 59491, 59731, 59843, 59843, 59987, 60291, 60291, 60451, 60611, 60803, 60819, 60851, 60963, 60979, 61219, 61283, 61283, 61347, 61459, 61619, 62179, 62179, 62179, 62307, 62323, 62323, 62467, 62675, 62675, 62819, 62931, 62947, 62947, 62963, 63059, 63091, 63171, 63379, 63395, 63427, 63539, 63715, 63843, 180, 276, 308, 388, 420, 484, 516, 612, 804, 852, 1396, 1460, 1460, 1524, 1540, 1620, 1652, 1716, 1812, 1860, 1860, 1956, 2036, 2340, 2356, 2356, 2436, 2756, 2884, 2900, 2964, 3092, 3572, 3588, 3668, 3812, 3844, 3892, 3988, 4004, 4340, 4388, 4532, 4564, 4564, 4564, 4852, 4852, 4932, 5044, 5108, 5412, 5412, 5588, 5604, 5732, 5796, 5812, 5876, 5924, 5924, 5924, 5956, 6148, 6212, 6276, 6772, 7220, 7252, 7268, 7268, 7444, 7444, 7732, 7860, 7876, 7876, 7892, 8036, 8132, 8420, 8804, 8852, 9060, 9076, 9092, 9172, 9220, 9236, 9380, 9396, 9444, 9828, 9908, 9988, 9988, 10052, 10212, 10276, 10308, 10340, 10356, 10372, 10388, 10420, 10532, 10788, 10980, 11060, 11204, 11524, 11636, 11684, 11748, 11796, 11988, 12148, 12308, 12452, 12484, 12500, 12628, 12820, 12996, 13012, 13076, 13172, 13236, 13348, 13796, 14068, 14100, 14116, 14212, 14324, 14404, 14420, 14596, 14612, 14804, 14836, 14836, 15060, 15236, 15492, 15492, 15572, 15588, 15620, 15652, 15860, 15876, 15940, 15972, 16116, 16180, 16196, 16260, 16260, 16516, 16692, 16788, 16852, 16916, 17060, 17108, 17108, 17140, 17140, 17220, 17524, 17636, 17668, 17684, 17828, 17972, 18084, 18132, 18628, 18692, 18916, 18964, 19028, 19252, 19428, 19572, 19844, 19860, 19860, 20084, 20100, 20228, 20324, 20372, 20516, 20564, 20628, 20836, 20884, 20932, 21060, 21348, 21380, 21412, 21700, 21716, 21748, 21780, 21860, 21956, 22020, 22244, 22340, 22484, 22724, 22740, 22772, 22884, 22900, 23076, 23364, 23508, 23780, 23796, 23844, 23876, 24020, 24020, 24036, 24100, 24244, 24340, 24340, 24484, 24516, 24580, 24596, 24980, 25044, 25220, 25300, 25380, 25412, 25492, 25492, 25540, 25572, 25748, 25908, 26004, 26020, 26084, 26148, 26148, 26212, 26228, 26244, 26388, 26532, 26580, 26820, 26900, 26932, 26980, 26980, 27236, 27316, 27476, 27556, 27620, 27748, 27844, 27860, 28148, 28180, 28212, 28244, 28340, 28356, 28372, 28388, 28564, 28676, 28676, 28708, 28964, 29012, 29012, 29124, 29188, 29204, 29300, 29460, 29716, 29748, 29812, 29972, 30084, 30148, 30196, 30340, 30468, 30548, 30564, 30676, 30788, 30836, 30916, 30964, 30980, 31028, 31252, 32020, 32180, 32276, 32292, 32468, 32548, 32660, 33012, 33300, 33364, 33412, 33444, 33588, 33620, 33796, 33828, 33876, 34324, 34356, 34404, 34452, 34644, 34644, 34868, 35092, 35172, 35220, 35428, 35428, 35444, 35684, 35748, 35812, 36116, 36164, 36196, 36468, 36676, 36724, 36772, 36852, 36868, 36948, 36948, 37028, 37124, 37124, 37204, 37300, 37476, 38084, 38196, 38228, 38468, 38628, 38868, 38948, 38964, 38996, 39188, 39268, 39268, 39332, 39332, 39364, 39396, 39412, 39636, 39684, 39764, 39876, 39876, 40068, 40164, 40164, 40164, 40212, 40244, 40244, 40308, 40388, 40436, 40436, 40564, 40580, 40644, 40740, 40740, 40772, 40772, 41108, 41108, 41172, 41204, 41492, 41604, 41732, 42116, 42228, 42452, 42452, 42452, 42548, 42932, 42996, 43140, 43268, 43316, 43348, 43348, 43508, 43508, 43508, 43572, 43652, 43796, 43876, 43940, 43956, 43988, 44260, 44548, 44548, 44548, 44580, 44804, 44852, 44948, 44980, 45044, 45300, 45300, 45316, 45364, 45364, 45412, 45492, 45764, 45764, 45796, 45956, 45956, 46148, 46180, 46244, 46324, 46340, 46420, 46532, 46532, 46532, 46788, 46852, 46996, 47236, 47236, 47236, 47252, 47268, 47300, 47396, 47428, 47476, 47556, 47620, 47684, 47700, 47748, 47812, 47908, 47908, 47908, 47972, 48052, 48068, 48116, 48260, 48404, 48484, 48516, 48708, 48740, 48740, 48820, 48820, 48836, 48964, 49188, 49236, 49444, 49924, 49924, 49972, 50004, 50020, 50100, 50116, 50132, 50356, 50484, 50612, 50692, 50788, 51140, 51172, 51284, 51284, 51476, 51732, 51860, 51924, 51940, 52052, 52180, 52212, 52244, 52292, 52420, 52420, 52436, 52484, 52500, 52580, 52884, 52916, 52916, 52916, 52932, 52932, 52932, 52948, 53012, 53028, 53044, 53316, 53412, 53460, 53588, 53588, 53620, 53636, 53844, 53844, 54228, 54340, 54404, 54420, 54420, 54420, 54452, 54468, 54612, 54788, 54964, 55124, 55364, 55380, 55380, 55572, 55700, 55748, 55764, 55780, 55988, 56084, 56244, 56404, 56436, 56740, 56900, 57076, 57124, 57124, 57124, 57156, 57236, 57316, 57332, 57444, 57476, 57492, 57572, 57668, 57780, 57844, 58196, 58260, 58516, 58532, 58628, 58708, 59188, 59332, 59364, 59428, 59460, 59492, 59764, 59924, 60036, 60084, 60180, 60260, 60260, 60292, 60292, 60308, 60580, 60756, 60788, 60868, 60948, 61108, 61124, 61204, 61380, 61412, 61428, 61476, 61492, 61620, 61668, 61668, 61924, 62004, 62228, 62228, 62228, 62228, 62292, 62372, 62468, 62484, 62788, 62836, 62852, 62900, 63300, 63348, 63428, 63428, 63572, 63620, 63764, 53, 165, 389, 389, 421, 453, 469, 565, 597, 725, 741, 805, 853, 885, 933, 933, 981, 997, 1061, 1189, 1269, 1397, 1413, 1445, 1461, 1557, 1605, 1621, 1637, 1637, 1781, 1861, 1861, 1861, 1957, 2117, 2325, 2373, 2389, 2469, 2741, 2773, 2805, 2997, 3013, 3029, 3093, 3093, 3109, 3173, 3173, 3285, 3397, 3541, 3589, 3941, 4133, 4213, 4373, 4389, 4453, 4549, 4789, 4821, 4901, 4965, 5093, 5125, 5141, 5205, 5285, 5413, 5461, 5541, 5605, 5829, 5829, 5909, 5989, 6085, 6229, 6293, 6389, 6437, 6453, 6549, 6549, 6613, 6645, 7061, 7125, 7141, 7189, 7253, 7381, 7445, 7541, 7637, 7733, 7989, 8021, 8069, 8149, 8293, 8565, 8581, 8725, 8901, 8933, 8981, 9173, 9205, 9317, 9477, 9477, 9509, 9509, 9589, 9653, 9717, 9925, 10213, 10309, 10325, 10501, 10533, 10821, 10869, 10901, 10981, 11205, 11221, 11317, 11397, 11525, 11861, 11861, 12085, 12101, 12277, 12309, 12421, 12437, 12453, 12533, 12565, 12565, 12629, 12629, 12645, 12661, 12677, 12693, 12709, 12725, 12853, 12997, 13237, 13253, 13445, 13525, 13573, 13573, 13653, 13653, 13749, 13765, 13829, 13925, 13989, 14133, 14213, 14325, 14549, 14613, 14645, 14645, 14917, 15045, 15237, 15253, 15397, 15445, 15589, 15605, 15845, 15877, 15941, 16005, 16021, 16069, 16197, 16245, 16261, 16261, 16549, 16581, 16629, 16661, 16661, 16693, 16693, 16853, 17045, 17189, 17221, 17365, 17477, 17493, 17589, 17701, 17797, 17829, 18085, 18197, 18261, 18277, 18357, 18373, 18501, 18549, 18549, 18629, 18677, 18693, 18725, 18741, 18853, 18917, 18949, 19013, 19029, 19077, 19109, 19541, 19605, 19653, 19845, 19941, 20021, 20149, 20197, 20453, 20533, 20629, 20661, 20709, 20869, 20997, 21109, 21173, 21221, 21221, 21317, 21349, 21509, 21557, 21653, 21717, 21845, 22277, 22325, 22325, 22341, 22389, 22389, 22485, 23013, 23109, 23125, 23157, 23237, 23301, 23349, 23381, 23413, 23461, 23605, 23621, 23733, 23749, 23781, 23861, 23861, 23989, 24005, 24293, 24389, 24725, 24741, 24997, 25221, 25525, 25573, 25653, 25749, 25829, 26005, 26021, 26085, 26085, 26117, 26133, 26149, 26149, 26213, 26229, 26389, 26533, 26677, 26709, 26709, 26789, 27109, 27125, 27253, 27653, 27653, 27893, 27909, 27909, 28037, 28037, 28133, 28133, 28245, 28309, 28309, 28309, 28325, 28389, 28677, 28997, 29157, 29157, 29365, 29413, 29621, 29781, 29813, 29941, 30053, 30245, 30421, 30693, 30709, 30773, 31221, 31269, 31317, 31445, 31461, 31509, 31573, 31893, 31893, 32037, 32053, 32085, 32229, 32261, 32389, 32421, 32469, 32821, 32933, 32933, 33093, 33365, 33509, 33541, 33557, 33589, 33621, 33717, 33733, 33749, 33829, 33941, 34005, 34069, 34085, 34197, 34197, 34373, 34549, 34645, 34693, 34741, 35461, 35525, 35573, 35589, 35781, 35797, 35973, 36021, 36261, 36309, 36453, 36469, 36469, 36533, 36805, 36821, 36901, 37333, 37349, 37381, 37413, 37893, 38069, 38405, 38437, 38805, 39125, 39173, 39269, 39269, 39381, 39381, 39429, 39701, 39717, 39845, 39941, 39973, 39973, 40245, 40245, 40501, 40533, 40565, 40597, 40613, 40773, 40917, 40949, 41317, 41349, 41365, 41525, 41669, 41813, 41861, 41877, 41957, 41957, 41957, 42101, 42101, 42437, 42453, 42773, 42789, 42869, 43061, 43061, 43285, 43413, 43477, 43701, 43733, 44005, 44069, 44229, 44261, 44373, 44485, 44517, 44709, 44821, 44853, 44917, 45221, 45285, 45317, 45333, 45365, 45381, 45413, 45493, 45525, 45829, 46229, 46373, 46453, 46597, 46661, 46805, 46821, 46837, 46869, 46965, 46997, 47061, 47061, 47445, 47557, 47749, 47749, 47781, 47797, 47813, 47813, 47845, 47893, 48021, 48053, 48133, 48325, 48325, 48325, 48373, 48469, 48485, 48629, 48677, 48709, 48725, 49045, 49061, 49061, 49141, 49173, 49269, 49669, 49733, 49861, 49861, 49877, 50053, 50053, 50101, 50325, 50485, 50533, 50677, 50837, 50885, 51109, 51253, 51717, 51861, 51893, 51909, 51989, 52021, 52037, 52069, 52133, 52261, 52389, 52501, 52757, 52901, 52917, 52981, 52981, 52981, 53109, 53269, 53317, 53365, 53477, 53541, 53557, 53557, 53589, 53637, 53653, 53669, 53669, 53749, 54005, 54069, 54069, 54725, 55013, 55013, 55237, 55285, 55637, 55765, 55797, 55877, 55941, 55989, 56133, 56165, 56309, 56373, 56533, 56565, 56693, 56757, 56901, 56917, 57045, 57413, 57429, 57605, 57669, 58005, 58149, 58245, 58405, 58421, 58837, 58869, 59125, 59125, 59189, 59189, 59221, 59461, 59477, 59589, 59621, 59797, 59829, 59861, 60085, 60213, 60677, 60709, 60741, 60773, 60821, 60821, 61573, 61749, 61797, 61877, 61893, 62133, 62165, 62405, 62741, 62837, 62981, 63029, 63061, 63269, 63301, 63317, 63317, 63349, 63381, 63429, 63477, 63509, 63541, 63701, 63717, 22, 70, 70, 102, 118, 150, 198, 198, 262, 390, 422, 598, 614, 662, 918, 1014, 1046, 1286, 1414, 1462, 1558, 1606, 1606, 1638, 1974, 2022, 2118, 2214, 2294, 2358, 2566, 2614, 2662, 2678, 2790, 2934, 2950, 2950, 3270, 3382, 3446, 3622, 3622, 3670, 3702, 4230, 4438, 4534, 4550, 4790, 4790, 4838, 4982, 5046, 5158, 5302, 5302, 5430, 5622, 5686, 5782, 5846, 5990, 6182, 6518, 6806, 6854, 6886, 6998, 7142, 7190, 7254, 7270, 7286, 7302, 7382, 7446, 7462, 7798, 7798, 7862, 7942, 8150, 8278, 8566, 8630, 8758, 8966, 9014, 9062, 9078, 9078, 9110, 9126, 9190, 9190, 9190, 9398, 9478, 9510, 9590, 9670, 9718, 9734, 9766, 9798, 9878, 10054, 10134, 10310, 10582, 10630, 10758, 10790, 10790, 10886, 10982, 11030, 11238, 11446, 11590, 11702, 11814, 12118, 12166, 12342, 12422, 12486, 12566, 12630, 12662, 12774, 12934, 12998, 13014, 13078, 13238, 13478, 13590, 13766, 13990, 14006, 14278, 14342, 14614, 14950, 15110, 15494, 15494, 15606, 15718, 15798, 15894, 15958, 16070, 16070, 16086, 16086, 16262, 16374, 16598, 16646, 16678, 16758, 16854, 16870, 16934, 16966, 17078, 17206, 17222, 17366, 17590, 17606, 17622, 17622, 17654, 17670, 17670, 17702, 18198, 18278, 18326, 18342, 18390, 18422, 18550, 18662, 18678, 18678, 18774, 18918, 18918, 18934, 19014, 19190, 19206, 19494, 19686, 19926, 19958, 20150, 20214, 20230, 20326, 20358, 20646, 20662, 20790, 20790, 20870, 21254, 21254, 21894, 22006, 22070, 22502, 22550, 22678, 22758, 22822, 22838, 22854, 22870, 22870, 23014, 23030, 23094, 23254, 23302, 23510, 23766, 23910, 24294, 24390, 24422, 24470, 24518, 24694, 24710, 24870, 24982, 25046, 25254, 25254, 25270, 25398, 25414, 25574, 25814, 25814, 25862, 25926, 25926, 25926, 25974, 26006, 26070, 26118, 26150, 26294, 26342, 26518, 26598, 26614, 26662, 26742, 26774, 26774, 27014, 27606, 27766, 28166, 28246, 28262, 28310, 28390, 28422, 28438, 28582, 28614, 28838, 28902, 28966, 28966, 29078, 29206, 29206, 29222, 29302, 29318, 29430, 29462, 29734, 29910, 29926, 29958, 30118, 30134, 30374, 30470, 30678, 30838, 30918, 31190, 31302, 31462, 31558, 31894, 32038, 32054, 32102, 32214, 32326, 32502, 32758, 32790, 32790, 32902, 32918, 32934, 33174, 33190, 33334, 33430, 33462, 33638, 33814, 33830, 34326, 34374, 34374, 34406, 34422, 34966, 35078, 35174, 35270, 35526, 35814, 35846, 36038, 36454, 36470, 36470, 36582, 36598, 36774, 36790, 36822, 36838, 36982, 37014, 37318, 37334, 37462, 37510, 37670, 37750, 38086, 38150, 38198, 38278, 38630, 38726, 38726, 38934, 38998, 39014, 39014, 39094, 39222, 39238, 39254, 39318, 39542, 39718, 39766, 40038, 40230, 40326, 40406, 40438, 40550, 40582, 40614, 40614, 40758, 41014, 41110, 41334, 41334, 41654, 41766, 41798, 41878, 41990, 42006, 42070, 42150, 42166, 42182, 42182, 42374, 42438, 42518, 42518, 42694, 42790, 42806, 42870, 42918, 43414, 43430, 43462, 43638, 43686, 43878, 43894, 43894, 43958, 44070, 44086, 44118, 44470, 44534, 44534, 44566, 44646, 44710, 44758, 44822, 44854, 44886, 44886, 44982, 45078, 45094, 45526, 45606, 45670, 45670, 45766, 45878, 46038, 46390, 46438, 46454, 46870, 47158, 47238, 47270, 47398, 47414, 47558, 47702, 47734, 47766, 47798, 47958, 47958, 48230, 48310, 48326, 48438, 48774, 48774, 48838, 49094, 49142, 49142, 49302, 49350, 49382, 49430, 49622, 49622, 49798, 50022, 50070, 50086, 50150, 50166, 50438, 50470, 50534, 50534, 50630, 50694, 50998, 51030, 51254, 51302, 51926, 52102, 52230, 52246, 52294, 52326, 52662, 52694, 52870, 52934, 52982, 52982, 52998, 53078, 53078, 53302, 53510, 53606, 53622, 53638, 53702, 53798, 53974, 53974, 53990, 54070, 54134, 54214, 54374, 54374, 54390, 54406, 54502, 54614, 54662, 54678, 54726, 54726, 54758, 54790, 54870, 55030, 55174, 55254, 55366, 55382, 55558, 55622, 55718, 55830, 55862, 55942, 55990, 56070, 56166, 56278, 56310, 56406, 56406, 56454, 56454, 56454, 56678, 56726, 56950, 56998, 57206, 57254, 57350, 57430, 57446, 57462, 57558, 57590, 57638, 57670, 57910, 57974, 58134, 58214, 58214, 58294, 58630, 58870, 59142, 59334, 59478, 59478, 59494, 59590, 59654, 59670, 59702, 59734, 59782, 59830, 60198, 60422, 60550, 60614, 60758, 60822, 60998, 60998, 61014, 61062, 61094, 61622, 61670, 61798, 61798, 61798, 61862, 61910, 62022, 62022, 62102, 62790, 62806, 62822, 63046, 63174, 63190, 63206, 63238, 63238, 63302, 63350, 63430, 63510, 63542, 263, 279, 327, 407, 551, 647, 903, 1063, 1143, 1447, 1735, 1991, 2087, 2359, 2487, 2567, 2583, 2663, 2695, 2871, 2951, 2999, 3111, 3111, 3207, 3399, 3463, 3735, 3815, 3959, 3959, 4023, 4119, 4135, 4183, 4711, 4759, 4775, 4807, 4855, 4855, 4871, 4999, 5031, 5255, 5271, 5271, 5303, 5303, 5367, 5975, 6007, 6119, 6135, 6247, 6423, 6551, 6551, 6599, 6599, 6727, 6871, 6935, 6967, 7015, 7127, 7143, 7175, 7271, 7303, 7447, 7495, 7623, 7863, 7959, 7959, 7991, 8039, 8103, 8119, 8231, 8743, 9303, 9351, 9383, 9447, 9463, 9511, 9671, 9671, 9719, 9863, 9911, 9991, 10087, 10087, 10167, 10215, 10327, 10503, 10583, 10615, 10663, 10791, 10791, 10823, 10903, 10919, 11031, 11415, 11655, 11783, 11815, 11831, 11991, 12087, 12135, 12375, 12423, 12455, 12551, 12903, 12999, 13143, 13239, 13319, 13335, 13351, 13367, 13719, 13783, 13879, 13975, 14007, 14407, 14519, 14583, 14631, 14743, 15015, 15111, 15159, 15159, 15463, 15639, 15719, 15767, 15927, 16039, 16087, 16103, 16135, 16263, 16455, 16711, 16759, 16759, 17127, 17399, 17447, 17511, 17831, 17831, 18087, 18391, 18535, 18663, 18695, 18695, 18775, 18807, 18919, 18967, 18999, 19063, 19143, 19399, 19703, 19703, 19767, 19863, 19927, 19943, 20119, 20327, 20791, 20839, 20871, 21047, 21223, 21255, 21431, 21447, 21495, 21511, 21511, 21591, 21655, 21879, 22071, 22407, 22455, 22487, 22519, 22967, 23063, 23287, 23383, 23575, 23591, 23607, 23719, 23799, 23943, 24039, 24343, 24343, 24359, 24359, 24375, 24407, 24599, 24727, 24871, 25143, 25207, 25319, 25719, 25863, 25895, 26007, 26023, 26119, 26199, 26327, 26375, 26407, 26407, 26439, 26455, 26471, 26503, 26503, 26535, 26727, 26775, 26935, 27063, 27207, 27255, 27303, 27319, 27431, 27447, 27463, 27575, 27575, 27591, 27767, 27783, 27799, 27863, 28007, 28663, 28663, 28743, 28871, 29095, 29223, 29239, 29335, 29495, 29607, 29719, 29751, 29911, 29943, 29943, 29975, 29975, 29975, 30055, 30295, 30375, 30679, 30839, 30855, 31015, 31159, 31191, 31303, 31447, 31447, 31543, 31559, 31655, 31943, 32039, 32087, 32103, 32199, 32279, 32295, 32359, 32599, 32615, 32615, 32679, 32871, 32919, 32967, 33351, 33415, 33447, 33927, 33959, 33975, 34007, 34007, 34071, 34071, 34247, 34247, 34359, 34391, 34407, 34455, 34599, 34599, 34871, 34983, 35127, 35207, 35239, 35399, 35463, 35479, 35607, 35847, 35879, 35911, 36167, 36231, 36263, 36279, 36423, 36471, 36599, 36791, 37127, 37143, 37207, 37223, 37239, 37255, 37271, 37287, 37303, 37335, 37623, 37767, 38215, 38215, 38231, 38487, 38519, 38519, 38567, 38631, 38631, 38695, 38711, 38727, 38775, 38839, 38935, 38967, 39015, 39063, 39111, 39239, 39367, 39543, 39559, 39703, 39719, 39751, 39751, 39767, 39799, 39815, 39847, 39959, 39975, 40023, 40215, 40231, 40247, 40311, 40487, 40903, 40935, 41047, 41127, 41207, 41671, 41703, 41703, 41847, 41879, 42023, 42039, 42071, 42071, 42359, 42455, 42615, 42679, 42759, 42871, 42903, 43031, 43031, 43431, 43511, 43575, 43639, 43687, 43863, 43959, 44135, 44311, 44343, 44343, 44535, 44535, 44615, 44647, 44679, 44807, 44887, 45031, 45063, 45095, 45095, 45111, 45223, 45239, 45255, 45495, 45607, 45671, 45943, 46279, 46295, 46663, 46759, 46791, 46791, 46807, 46903, 46903, 47175, 47207, 47207, 47223, 47303, 47559, 47559, 47639, 47751, 48039, 48279, 48407, 48471, 48487, 48519, 48631, 48631, 48775, 48775, 48807, 49287, 49431, 49543, 49591, 49767, 49783, 49927, 50023, 50055, 50087, 50119, 50439, 50455, 50887, 50951, 50951, 51079, 51079, 51127, 51255, 51255, 51511, 51607, 51703, 51975, 52023, 52039, 52055, 52071, 52119, 52215, 52231, 52247, 52295, 52423, 52519, 52887, 52887, 52935, 52983, 53159, 53191, 53239, 53303, 53303, 53335, 53511, 53575, 53623, 53655, 53847, 54103, 54167, 54327, 54391, 54423, 54423, 54455, 54503, 54583, 54599, 54647, 54679, 54679, 54679, 54727, 54839, 54871, 54887, 54903, 54903, 55255, 55271, 55319, 55319, 55335, 55431, 55719, 55783, 55943, 55943, 55975, 55991, 56455, 56599, 56695, 57175, 57191, 57255, 57367, 57367, 57383, 57431, 57719, 57847, 58071, 58119, 58199, 58215, 58407, 58887, 58919, 58983, 59063, 59335, 59335, 59511, 59735, 59895, 59943, 60071, 60135, 60135, 60311, 60519, 60599, 60887, 61111, 61127, 61239, 61287, 61303, 61495, 61575, 61847, 61847, 61879, 61975, 62071, 62279, 62343, 62407, 62407, 62583, 62583, 62743, 62743, 62759, 62967, 63447, 63479, 63495, 104, 216, 344, 408, 456, 472, 632, 888, 888, 952, 1576, 1816, 1960, 2120, 2440, 2744, 2776, 2856, 3000, 3048, 3096, 3112, 3112, 3176, 3192, 3256, 3480, 3832, 3832, 3976, 4024, 4056, 4520, 4648, 4680, 4712, 4792, 4808, 4824, 4872, 4904, 5000, 5176, 5272, 5272, 5336, 5592, 5608, 5752, 5880, 6056, 6280, 6504, 6920, 6984, 7144, 7144, 7144, 7272, 7560, 7576, 7704, 7736, 7864, 7896, 7976, 7992, 8024, 8056, 8088, 8088, 8248, 8456, 8664, 8904, 8968, 8984, 9032, 9048, 9080, 9192, 9224, 9256, 9448, 9544, 9608, 9704, 9768, 9960, 10104, 10152, 10264, 10312, 10488, 10792, 10856, 10904, 10936, 11016, 11032, 11048, 11080, 11128, 11304, 11336, 11448, 11464, 11576, 11592, 11656, 11720, 11736, 11784, 11880, 11992, 12024, 12024, 12072, 12216, 12376, 12376, 12392, 12456, 12488, 12616, 12632, 12744, 12808, 12808, 12856, 13000, 13048, 13192, 13208, 13224, 13256, 13336, 13448, 13480, 13608, 13624, 13656, 13656, 13704, 13736, 13832, 14392, 14440, 14552, 14568, 14584, 14760, 14760, 15064, 15160, 15176, 15176, 15336, 15480, 15576, 15576, 15912, 15976, 16200, 16200, 16408, 16616, 16616, 16616, 17064, 17128, 17128, 17192, 17208, 17256, 17400, 17464, 17496, 17688, 17848, 17976, 17992, 17992, 18056, 18104, 18248, 18280, 18280, 18280, 18376, 18552, 18632, 18696, 18696, 18888, 18920, 18952, 19064, 19144, 19176, 19320, 19432, 19496, 19672, 19720, 19848, 19848, 19912, 20104, 20120, 20120, 20136, 20248, 20472, 20664, 20744, 20872, 21096, 21144, 21304, 21400, 21432, 21432, 21592, 21592, 21672, 21832, 21832, 21832, 21976, 22072, 22072, 22200, 22376, 22648, 22664, 22856, 22888, 22968, 22968, 23048, 23080, 23096, 23128, 23240, 23336, 23368, 23384, 23400, 23432, 23432, 23576, 23640, 23672, 23944, 24200, 24344, 24408, 24424, 24488, 24520, 24552, 24584, 24584, 24664, 24840, 24872, 25128, 25336, 25528, 25576, 25688, 25720, 25896, 26024, 26024, 26024, 26120, 26120, 26120, 26136, 26184, 26248, 26328, 26392, 26504, 26552, 26776, 26872, 27000, 27224, 27272, 27304, 27464, 27544, 27576, 27576, 27608, 27896, 27960, 28264, 28280, 28360, 28360, 28392, 28440, 28568, 28568, 28664, 28888, 28952, 29336, 29384, 29496, 29560, 29624, 29640, 29688, 29736, 29736, 29928, 29960, 30056, 30184, 30248, 30376, 30552, 30744, 30760, 30824, 30840, 30840, 31384, 31416, 32024, 32056, 32168, 32184, 32360, 32504, 32664, 32728, 32776, 32872, 32952, 33080, 33224, 33240, 33240, 33240, 33304, 33352, 33400, 33448, 33512, 33592, 33688, 33752, 33800, 34280, 34456, 34472, 34536, 34808, 34840, 34888, 35256, 35576, 35608, 35736, 35896, 36008, 36040, 36152, 36280, 36440, 36600, 36904, 36920, 36936, 37016, 37272, 37336, 37432, 37512, 37512, 37560, 37784, 37816, 38024, 38072, 38088, 38488, 38552, 38648, 38920, 38920, 39000, 39000, 39048, 39064, 39096, 39112, 39144, 39256, 39320, 39400, 39448, 39480, 39512, 39736, 39816, 40280, 40312, 40600, 40616, 40744, 40744, 40792, 41048, 41096, 41128, 41512, 41640, 41736, 41864, 42024, 42040, 42136, 42472, 42584, 42760, 42872, 42920, 42920, 43032, 43080, 43240, 43368, 43400, 43560, 43688, 43832, 43848, 43880, 43960, 44040, 44088, 44552, 44648, 44680, 44808, 44872, 44888, 44904, 45096, 45336, 45368, 45368, 45496, 45512, 45592, 45784, 46104, 46200, 46200, 46216, 46312, 46344, 46440, 46456, 46456, 46680, 46808, 46808, 46872, 46968, 47032, 47096, 47272, 47272, 47288, 47304, 47640, 47640, 47656, 47672, 47736, 47992, 48040, 48344, 48504, 48504, 48744, 48744, 48840, 48840, 48840, 48856, 48872, 48872, 48904, 49032, 49112, 49144, 49176, 49384, 49592, 49672, 49720, 49736, 49752, 49896, 49976, 50056, 50136, 50152, 50264, 50392, 50392, 50424, 50680, 50680, 50776, 50952, 50984, 51272, 51384, 51400, 51656, 51816, 51944, 52056, 52072, 52200, 52200, 52216, 52232, 52408, 53032, 53048, 53304, 53816, 53864, 54008, 54008, 54072, 54104, 54360, 54360, 54376, 54472, 54568, 54856, 54856, 54856, 54936, 54952, 55016, 55016, 55144, 55176, 55176, 55240, 55256, 55384, 55400, 55448, 55448, 55464, 55576, 55640, 55912, 56008, 56344, 56360, 56392, 56440, 56536, 56616, 56616, 56792, 56856, 56856, 57016, 57048, 57096, 57144, 57144, 57576, 57624, 57624, 57848, 57992, 58008, 58056, 58184, 58216, 58312, 58312, 58504, 58504, 58632, 58712, 58760, 58840, 59144, 59336, 59720, 59736, 59736, 59768, 60088, 60104, 60200, 60200, 60216, 60312, 60328, 60424, 60600, 60776, 60792, 61096, 61176, 61448, 61448, 61800, 61976, 62008, 62120, 62168, 62344, 62392, 62552, 62552, 62552, 62728, 62744, 62984, 63112, 63112, 63128, 63144, 63176, 63352, 63416, 63416, 63496, 63544, 63816, 297, 441, 489, 617, 729, 793, 857, 937, 1017, 1225, 1369, 1417, 1417, 1465, 1545, 1769, 1785, 1817, 1833, 1881, 1881, 1881, 1897, 1929, 1961, 2073, 2361, 2617, 2889, 2889, 2921, 3049, 3049, 3593, 3593, 3689, 3705, 3753, 3865, 3881, 3913, 4009, 4057, 4121, 4169, 4169, 4201, 4457, 4505, 4665, 4713, 4873, 5161, 5193, 5193, 5209, 5369, 5593, 5593, 5593, 5625, 5689, 5945, 6313, 6457, 6457, 6473, 6601, 6633, 6665, 6777, 6873, 6985, 7097, 7225, 7305, 7353, 7449, 7481, 7753, 7817, 7833, 7913, 8313, 8329, 8457, 8537, 8585, 8841, 8969, 9097, 9385, 9401, 9449, 9529, 9593, 9673, 9689, 9705, 9785, 9929, 10105, 10217, 10217, 10281, 10281, 10329, 10345, 10361, 10361, 10489, 10729, 10777, 10777, 10873, 11001, 11065, 11097, 11257, 11305, 11337, 11465, 11465, 11577, 11593, 11753, 11801, 11977, 12105, 12153, 12153, 12201, 12233, 12377, 12393, 12425, 12505, 12537, 12569, 12841, 12841, 12873, 12889, 12921, 12921, 13001, 13033, 13177, 13433, 13433, 13497, 13657, 13657, 14249, 14425, 14425, 14441, 14521, 14553, 14569, 14585, 14617, 14729, 14889, 14937, 14985, 15017, 15081, 15257, 15529, 15753, 15801, 15833, 15881, 15881, 16297, 16489, 16569, 16617, 16697, 16729, 16873, 16905, 17017, 17017, 17129, 17145, 17161, 17193, 17353, 17513, 17561, 17657, 17689, 17721, 17785, 17929, 17929, 18009, 18201, 18233, 18233, 18265, 18329, 18361, 18441, 18633, 18649, 18873, 18905, 18921, 18953, 19177, 19257, 19417, 19449, 19497, 19529, 19625, 19641, 19641, 19785, 19929, 19961, 19977, 20121, 20281, 20297, 20505, 20649, 20745, 20745, 20745, 20825, 20889, 21049, 21097, 21161, 21289, 21337, 21401, 21401, 21417, 21609, 21817, 21881, 21929, 21977, 21993, 22121, 22153, 22377, 22521, 22553, 22553, 22617, 22841, 22953, 23129, 23129, 23177, 23273, 23337, 23353, 23369, 23369, 23385, 23401, 23865, 24201, 24297, 24377, 24585, 24633, 24697, 24713, 24713, 24745, 24921, 24921, 24985, 25081, 25209, 25257, 25449, 25465, 25513, 25577, 25593, 25657, 25673, 25721, 25769, 25881, 25881, 25897, 26105, 26121, 26297, 26377, 26393, 26569, 26617, 26633, 26649, 26713, 26745, 26745, 26761, 26889, 26969, 27113, 27113, 27177, 27209, 27305, 27321, 27369, 27401, 27529, 27529, 27673, 27913, 27929, 28073, 28361, 28361, 28521, 28777, 28777, 28969, 28985, 29001, 29033, 29241, 29385, 29433, 29497, 29657, 29865, 29929, 29945, 30009, 30089, 30153, 30281, 30313, 30633, 30745, 30841, 30905, 30921, 30969, 31049, 31353, 31465, 31609, 31705, 31945, 32105, 32281, 32377, 32441, 32585, 32633, 32777, 32777, 32793, 32857, 32873, 33001, 33081, 33113, 33289, 33337, 33593, 33721, 33833, 33961, 34025, 34089, 34169, 34217, 34473, 34473, 34521, 34697, 34729, 34841, 34937, 34969, 35017, 35337, 35353, 35385, 35449, 35513, 35689, 35801, 35833, 35993, 36153, 36185, 36281, 36329, 36377, 36377, 36473, 36617, 36617, 36825, 36857, 36953, 36969, 37001, 37017, 37049, 37241, 37385, 37401, 37497, 37577, 37737, 37849, 37897, 37897, 38073, 38281, 38553, 38569, 38633, 38777, 38825, 38889, 38921, 39113, 39129, 39209, 39273, 39417, 39593, 39641, 39721, 39753, 39769, 39849, 40249, 40393, 40537, 40585, 40649, 40713, 40713, 40745, 40761, 40809, 40937, 41113, 41209, 41545, 41545, 41609, 41785, 42105, 42201, 42377, 42473, 42713, 42793, 42825, 43193, 43353, 43401, 43449, 43497, 43545, 43561, 43897, 43897, 43993, 44041, 44105, 44137, 44217, 44233, 44329, 44537, 44585, 45033, 45081, 45097, 45097, 45369, 45673, 45689, 45721, 45801, 45881, 46057, 46057, 46361, 46457, 46489, 46521, 46633, 46649, 46665, 47033, 47049, 47113, 47193, 47289, 47337, 47385, 47657, 47929, 47961, 47961, 48009, 48281, 48361, 48473, 48601, 48681, 48745, 48841, 48889, 48937, 48985, 49097, 49193, 49241, 49561, 49593, 49609, 49625, 49625, 49673, 49689, 50345, 50441, 50441, 50537, 50569, 50649, 50745, 50889, 51065, 51081, 51097, 51097, 51241, 51641, 51689, 51721, 51721, 51785, 51833, 51849, 52041, 52121, 52265, 52329, 52345, 52425, 52441, 52473, 52521, 52665, 52793, 52809, 52905, 52905, 53017, 53081, 53145, 53225, 53449, 53609, 53721, 53929, 53993, 54025, 54057, 54153, 54153, 54185, 54329, 54361, 54377, 54473, 54473, 54489, 54553, 54601, 54617, 54697, 54793, 54857, 54921, 55017, 55177, 55209, 55209, 55225, 55385, 55465, 55545, 55769, 55801, 55833, 56009, 56041, 56361, 56393, 56457, 56457, 56537, 56937, 57017, 57145, 57161, 57225, 57241, 57273, 57273, 57369, 57369, 57401, 57529, 57545, 57753, 58057, 58073, 58089, 58121, 58153, 58297, 58297, 58473, 58505, 58761, 58841, 58937, 58937, 59017, 59097, 59145, 59161, 59353, 59417, 59481, 59721, 59785, 59977, 59993, 60105, 60137, 60265, 60329, 60393, 60441, 60873, 60985, 61177, 61465, 61497, 61561, 61561, 61673, 61769, 61865, 62025, 62105, 62137, 62169, 62409, 62425, 62425, 62473, 62489, 62521, 62713, 62729, 62793, 63081, 63145, 63225, 63433, 63449, 63449, 63529, 63577, 63625, 63689, 63705, 26, 74, 250, 266, 314, 362, 410, 410, 442, 474, 554, 762, 1082, 1114, 1114, 1146, 1194, 1370, 1450, 1482, 1530, 1738, 1738, 1962, 2026, 2058, 2058, 2074, 2586, 2618, 2618, 2746, 2794, 2906, 2970, 3146, 3210, 3402, 3514, 3546, 3562, 3578, 3610, 3642, 3722, 3930, 4042, 4058, 4122, 4138, 4154, 4570, 4666, 4698, 4906, 4938, 5370, 5482, 5546, 5578, 5626, 5674, 5722, 5754, 5882, 5914, 6266, 6346, 6474, 6554, 6682, 6682, 6858, 6938, 7082, 7194, 7226, 7258, 7450, 7450, 7722, 7834, 8250, 8410, 8410, 8458, 8522, 8538, 8586, 8586, 8826, 8922, 9002, 9002, 9050, 9066, 9066, 9306, 9322, 9338, 9354, 9418, 9450, 9466, 9690, 9690, 9866, 10074, 10138, 10154, 10170, 10170, 10234, 10266, 10282, 10282, 10634, 10746, 10810, 10954, 11066, 11226, 11242, 11466, 11530, 11770, 11770, 11818, 12106, 12170, 12362, 12362, 12426, 12442, 12490, 12506, 12602, 12618, 12666, 12682, 12842, 12938, 13002, 13002, 13066, 13146, 13530, 13530, 13690, 13914, 13962, 14122, 14170, 14218, 14474, 14874, 14922, 14970, 15162, 15802, 15834, 15850, 15850, 15882, 15882, 16090, 16250, 16298, 16362, 16666, 16746, 16938, 16954, 16986, 17114, 17130, 17130, 17146, 17146, 17418, 17546, 17562, 17642, 18010, 18026, 18074, 18090, 18186, 18250, 18586, 18602, 18666, 18666, 18858, 18890, 18922, 19034, 19178, 19210, 19290, 19338, 19594, 19626, 19658, 19914, 20330, 20410, 20410, 20570, 20970, 20970, 20970, 20970, 21018, 21066, 21066, 21098, 21098, 21194, 21306, 21322, 21434, 21450, 21546, 21546, 21610, 21690, 21690, 21754, 21962, 21962, 21978, 21978, 22042, 22074, 22250, 22314, 22426, 22570, 22602, 22698, 22730, 23002, 23066, 23066, 23082, 23114, 23130, 23242, 23274, 23498, 23866, 23930, 23946, 23978, 24282, 24330, 24346, 24410, 24586, 24778, 24810, 24890, 24986, 24986, 24986, 25082, 25098, 25178, 25210, 25210, 25210, 25466, 25498, 25514, 25578, 25578, 25578, 25610, 25674, 25690, 25706, 25722, 25770, 25770, 25850, 25882, 26074, 26170, 26186, 26186, 26314, 26538, 26554, 26570, 26586, 26602, 26650, 26714, 26746, 26762, 26762, 26794, 26810, 26906, 26938, 27002, 27098, 27098, 27322, 27642, 28778, 29210, 29210, 29226, 29274, 29322, 29466, 29578, 29610, 29738, 29850, 29882, 29978, 29994, 30106, 30138, 30378, 30730, 30826, 30970, 30970, 31194, 31290, 31514, 31738, 31754, 31978, 32010, 32106, 32106, 32122, 32122, 32186, 32378, 32394, 32778, 32794, 32826, 32874, 33322, 33402, 33530, 33562, 33610, 33850, 33898, 33962, 33978, 34218, 34218, 34218, 34234, 34346, 34394, 34458, 34554, 34602, 34714, 34730, 34826, 35002, 35290, 35338, 35466, 35514, 35610, 35866, 35914, 36138, 36154, 36378, 36410, 36410, 36490, 36554, 36666, 36682, 36794, 36794, 37178, 37370, 37418, 37850, 38026, 38122, 38170, 38186, 38362, 38378, 38506, 38586, 38682, 38746, 38762, 38986, 39002, 39066, 39114, 39114, 39114, 39402, 39482, 39594, 39642, 39642, 39898, 40186, 40458, 40586, 40634, 40730, 40746, 40890, 40890, 41338, 41370, 41482, 41514, 41610, 41722, 41802, 41834, 41930, 41930, 41930, 42442, 42730, 42778, 42906, 42922, 42954, 43162, 43450, 43466, 43498, 43690, 43754, 43994, 44074, 44122, 44138, 44170, 44234, 44346, 44490, 44586, 44666, 44986, 45306, 45322, 45466, 45674, 45690, 45690, 45770, 45818, 45850, 46010, 46058, 46138, 46202, 46490, 46490, 46986, 47018, 47066, 47066, 47210, 47562, 47610, 47610, 48042, 48346, 48346, 48442, 48474, 48490, 48522, 48682, 48746, 48890, 48890, 48938, 48938, 49050, 49098, 49290, 49306, 49306, 49322, 49402, 49450, 49610, 49626, 49642, 49658, 49706, 49754, 49866, 49882, 50106, 50122, 50122, 50378, 50410, 50426, 50506, 50570, 50650, 50650, 50730, 50778, 50858, 50986, 51018, 51018, 51082, 51114, 51130, 51290, 52042, 52106, 52186, 52202, 52266, 52330, 52346, 52394, 52522, 52666, 52682, 52906, 52938, 53002, 53018, 53018, 53226, 53226, 53450, 53578, 53626, 53674, 53802, 53962, 54074, 54122, 54186, 54234, 54250, 54266, 54330, 54394, 54394, 54586, 54762, 54842, 54858, 54890, 54922, 55018, 55162, 55178, 55194, 55242, 55242, 55290, 55386, 55530, 55546, 55546, 55562, 55722, 55802, 55802, 55882, 55962, 56026, 56122, 56218, 56362, 56394, 56458, 56602, 56634, 57130, 57178, 57306, 57418, 57642, 57722, 57818, 57882, 57930, 58010, 58042, 58058, 58106, 58154, 58154, 58378, 58954, 58986, 59018, 59114, 59162, 59194, 59418, 59530, 59562, 59914, 60138, 60170, 60330, 60378, 60618, 60810, 60890, 61098, 61114, 61130, 61242, 61514, 61642, 61914, 62026, 62074, 62122, 62186, 62202, 62426, 62458, 62698, 62890, 63098, 63210, 63370, 63450, 63482, 63482, 63658, 59, 107, 107, 155, 171, 203, 203, 267, 363, 427, 763, 763, 939, 987, 1003, 1147, 1211, 1307, 1323, 1355, 1355, 1371, 1499, 1563, 1643, 1675, 1691, 1691, 1723, 2331, 2331, 2363, 2443, 2603, 2827, 2843, 2875, 2891, 2907, 2907, 2955, 2955, 2955, 3003, 3003, 3035, 3147, 3195, 3259, 3387, 3451, 3643, 3643, 3691, 3979, 3995, 4027, 4235, 4267, 4299, 4427, 4507, 4555, 4763, 4939, 4955, 5339, 5371, 5803, 5803, 5835, 5883, 5883, 5915, 5963, 6059, 6059, 6139, 6235, 6267, 6331, 6395, 6507, 6731, 6859, 7227, 7259, 7499, 7595, 7851, 7883, 7931, 7931, 8027, 8043, 8043, 8059, 8587, 8587, 8827, 8987, 8987, 9003, 9099, 9131, 9451, 9595, 9595, 9611, 9691, 9963, 9979, 10091, 10299, 10475, 10715, 10715, 10811, 10923, 10987, 11163, 11307, 11435, 11451, 11451, 11579, 11643, 11755, 11819, 11851, 11899, 11915, 12075, 12251, 12379, 12523, 12555, 12603, 12667, 12747, 12939, 13131, 13195, 13195, 13291, 13339, 13355, 13451, 13467, 13515, 13547, 13579, 13611, 13643, 13659, 13947, 13963, 13995, 14155, 14171, 14251, 14363, 14411, 14491, 14507, 15067, 15083, 15291, 15307, 15323, 15659, 15659, 16123, 16235, 16715, 16763, 16971, 17003, 17211, 17419, 17483, 17547, 17627, 17707, 17739, 17739, 18283, 18507, 18507, 18523, 18587, 18683, 18875, 19035, 19051, 19323, 19339, 19371, 19419, 19419, 19531, 19611, 19627, 19915, 20203, 20363, 20363, 20411, 20411, 20523, 20555, 20603, 20731, 20731, 20795, 20795, 20891, 20939, 20971, 20971, 21115, 21115, 21179, 21387, 21419, 21467, 21499, 21531, 21579, 21611, 21787, 21835, 21883, 21963, 22347, 22363, 22395, 22475, 22475, 22571, 22603, 22699, 22715, 23035, 23067, 23131, 23179, 23307, 23307, 23403, 23419, 23435, 23499, 23563, 23803, 23803, 23915, 24011, 24315, 24395, 24411, 24491, 24587, 24651, 24683, 24715, 24715, 24731, 24795, 24827, 24859, 24891, 24907, 24923, 24939, 24939, 25051, 25083, 25627, 25691, 25707, 25899, 25931, 25947, 25947, 26027, 26027, 26059, 26107, 26107, 26203, 26379, 26427, 26443, 26443, 26459, 26459, 26491, 26507, 26523, 26555, 26571, 26635, 26651, 26683, 26715, 26715, 26747, 26779, 26779, 26907, 26971, 26971, 26987, 27307, 27451, 27483, 27659, 27787, 27819, 27819, 27819, 27851, 27931, 28027, 28283, 28299, 28347, 28395, 28539, 28555, 28619, 28699, 28699, 28715, 28971, 28971, 29083, 29227, 29227, 29419, 29611, 29627, 29627, 29707, 29739, 29755, 29915, 29931, 29979, 30059, 30683, 30795, 30827, 31035, 31163, 31467, 31531, 31595, 31611, 31819, 31851, 31995, 32043, 32075, 32203, 32331, 32331, 32379, 32427, 32763, 32795, 32971, 33179, 33483, 33499, 33579, 33819, 33835, 34075, 34075, 34219, 34267, 34331, 34491, 34667, 34923, 35179, 35243, 35339, 35515, 35595, 35595, 35835, 35867, 36299, 36411, 36731, 36907, 36971, 37131, 37163, 37259, 37451, 37723, 37819, 37867, 38059, 38139, 38187, 38459, 39019, 39627, 39803, 39835, 39979, 40267, 40411, 40459, 40523, 40811, 40811, 40923, 40971, 40971, 40987, 41003, 41131, 41403, 41531, 41547, 41867, 41867, 41883, 41947, 41995, 42027, 42347, 42395, 42459, 42571, 42587, 42683, 42699, 42731, 42891, 42907, 42955, 42971, 43243, 43419, 43547, 43563, 43563, 43723, 43979, 44059, 44107, 44139, 44235, 44603, 44683, 44827, 45227, 45691, 45723, 45755, 46075, 46091, 46107, 46123, 46459, 46539, 46859, 46955, 47051, 47067, 47115, 47339, 47355, 47435, 47563, 47803, 47899, 47995, 48347, 48347, 48411, 48651, 48859, 48891, 48891, 48923, 48955, 48971, 48971, 48971, 48987, 48987, 49099, 49099, 49147, 49147, 49179, 49451, 49467, 49499, 49547, 49579, 49611, 49627, 49739, 49883, 50059, 50123, 50379, 50443, 50523, 50539, 50555, 50603, 50651, 50667, 50667, 50699, 50955, 51003, 51035, 51051, 51099, 51147, 51195, 51291, 51499, 51755, 52267, 52315, 52443, 52491, 52635, 52635, 52667, 52779, 52939, 52939, 53003, 53083, 53179, 53195, 53211, 53323, 53451, 53499, 53499, 53547, 53963, 53995, 54395, 54411, 54411, 54443, 54459, 54635, 54683, 54891, 55019, 55243, 55403, 55435, 55787, 55803, 55899, 56107, 56139, 56187, 56187, 56299, 56379, 56443, 56443, 56539, 56587, 56635, 56683, 56891, 56971, 57067, 57099, 57099, 57131, 57163, 57275, 57371, 57387, 57451, 57483, 57595, 57867, 58075, 58187, 58203, 58443, 58491, 58539, 58603, 58843, 58843, 58987, 59435, 59723, 59787, 59803, 59803, 59867, 60171, 60347, 60379, 60475, 60651, 60715, 60731, 60731, 60939, 60987, 61099, 61099, 61211, 61275, 61339, 61499, 61691, 61691, 61915, 61979, 62027, 62107, 62123, 62155, 62187, 62315, 62315, 62507, 62507, 62731, 62763, 62779, 62779, 62811, 62891, 62955, 63035, 63131, 63163, 63195, 63243, 63355, 63483, 12, 140, 188, 284, 284, 332, 588, 684, 732, 860, 892, 924, 1260, 1324, 1340, 1468, 1692, 1804, 1980, 1996, 2140, 2236, 2300, 2332, 2444, 2524, 2524, 2540, 2668, 2764, 3292, 3292, 3500, 3532, 3596, 3612, 3692, 3692, 3772, 4060, 4092, 4124, 4140, 4236, 4316, 4348, 4364, 4412, 4652, 4764, 4764, 4972, 4988, 5068, 5356, 5404, 5708, 5740, 5916, 5948, 5964, 5980, 5980, 6012, 6092, 6444, 6588, 6716, 6908, 7196, 7244, 7276, 7356, 7372, 7468, 7500, 7516, 7516, 7884, 7900, 7964, 7980, 8076, 8156, 8284, 8300, 8380, 8476, 8492, 8620, 8620, 8668, 8700, 8764, 9020, 9180, 9452, 9516, 9548, 9596, 9628, 9676, 9692, 9852, 9884, 9932, 9996, 10252, 10284, 10300, 10300, 10364, 10540, 10588, 10700, 10732, 10764, 10860, 11180, 11196, 11196, 11228, 11628, 11660, 11724, 11852, 12044, 12076, 12124, 12428, 12428, 12556, 12748, 12972, 13164, 13244, 13308, 13404, 13452, 13468, 13484, 13564, 13612, 13612, 13628, 13692, 13708, 13804, 13852, 13948, 14284, 14332, 14412, 14444, 14524, 14620, 14668, 14684, 14684, 14780, 14956, 14988, 15036, 15036, 15068, 15132, 15180, 15724, 15788, 15804, 15804, 15980, 15980, 15996, 16124, 16156, 16348, 16348, 16412, 16492, 16508, 16588, 16652, 16652, 16796, 17116, 17180, 17212, 17388, 17388, 17580, 17692, 17756, 17788, 17964, 18044, 18412, 18892, 18940, 19100, 19116, 19452, 19500, 19564, 19628, 19836, 19916, 19916, 20044, 20044, 20108, 20108, 20156, 20156, 20204, 20348, 20412, 20412, 20444, 20444, 20444, 20604, 20732, 20828, 20844, 20876, 20876, 20988, 21020, 21068, 21084, 21276, 21308, 21324, 21356, 21420, 21708, 21740, 22492, 22588, 22812, 22924, 22956, 22972, 23084, 23116, 23212, 23244, 23292, 23292, 23308, 23372, 23372, 23436, 23436, 23676, 23740, 23772, 24028, 24092, 24236, 24380, 24444, 24476, 24492, 24540, 24780, 24796, 24876, 24988, 24988, 24988, 25116, 25292, 25308, 25420, 25420, 25468, 25500, 25612, 25900, 25948, 25948, 26012, 26028, 26092, 26108, 26172, 26204, 26252, 26332, 26396, 26428, 26572, 26588, 26716, 26748, 26748, 26780, 26780, 27020, 27100, 27116, 27404, 27692, 27692, 27692, 27916, 27932, 27980, 28300, 28300, 28300, 28636, 28668, 28812, 28844, 28972, 29148, 29164, 29228, 29276, 29516, 29516, 29532, 29580, 29772, 29868, 29932, 30172, 30572, 30812, 30828, 30828, 30844, 31116, 31116, 31212, 31260, 31324, 31420, 31740, 31852, 31900, 32076, 32092, 32204, 32300, 32364, 32460, 32508, 32508, 32764, 32796, 32828, 32860, 33116, 33116, 33292, 33388, 33484, 33628, 33804, 33900, 33900, 33900, 33996, 34028, 34076, 34076, 34236, 34572, 34572, 34700, 34716, 34956, 35196, 35292, 35340, 35356, 35420, 35484, 35596, 35724, 35788, 35804, 35836, 35836, 35916, 36636, 36844, 36956, 37068, 37228, 37228, 37244, 37372, 37452, 37452, 37628, 37900, 37932, 38156, 38156, 38348, 38572, 38572, 38988, 38988, 39020, 39100, 39196, 39356, 39500, 39644, 39644, 39820, 39852, 39932, 39996, 40012, 40012, 40108, 40108, 40172, 40188, 40396, 40524, 40684, 40732, 40748, 40748, 40812, 40828, 41068, 41084, 41340, 41420, 41564, 41692, 41948, 42028, 42076, 42124, 42156, 42380, 42476, 42780, 42780, 42780, 42892, 42988, 43052, 43308, 43340, 43340, 43356, 43404, 43420, 43420, 43452, 43468, 43484, 43484, 43676, 43740, 43932, 43980, 44012, 44028, 44092, 44348, 44444, 44588, 44780, 44828, 44892, 45676, 45676, 45692, 45740, 45756, 45804, 45868, 46140, 46236, 46380, 46556, 46572, 46956, 47004, 47004, 47068, 47340, 47532, 47660, 47724, 47756, 47884, 47964, 47996, 48044, 48060, 48124, 48124, 48156, 48236, 48364, 48380, 48396, 48556, 48588, 48860, 48908, 48940, 48988, 48988, 49036, 49228, 49340, 49356, 49388, 49596, 49724, 49724, 49756, 49756, 49820, 49852, 49868, 49948, 50060, 50076, 50252, 50364, 50380, 50540, 50652, 50652, 50668, 50844, 50844, 50972, 50972, 50988, 51004, 51148, 51260, 51420, 51420, 51596, 51772, 51980, 52092, 52220, 52236, 52348, 52620, 52732, 52732, 53036, 53196, 53388, 53484, 53644, 53964, 54140, 54252, 54380, 54444, 54476, 54476, 54732, 54748, 54812, 54812, 54908, 54908, 55004, 55052, 55116, 55164, 55180, 55244, 55388, 55580, 55644, 55788, 55788, 55836, 55868, 55884, 55916, 55964, 55964, 56012, 56076, 56236, 56428, 56444, 56604, 56780, 56796, 56844, 56972, 57020, 57212, 57308, 57372, 57420, 57420, 57452, 57596, 57596, 57788, 57820, 57820, 57868, 57948, 58028, 58172, 58204, 58492, 58508, 58684, 58924, 58988, 59004, 59068, 59228, 59308, 59340, 59420, 59516, 59548, 59676, 59692, 59692, 59724, 59724, 60012, 60332, 60348, 60348, 60748, 60748, 60780, 60812, 61052, 61068, 61068, 61084, 61084, 61180, 61564, 61564, 61692, 61740, 61820, 62076, 62092, 62108, 62156, 62284, 62396, 62412, 62588, 62732, 62828, 62940, 63084, 63100, 63228, 63436, 63452, 63532, 63532, 63564, 63596, 63628, 63740, 29, 173, 349, 413, 445, 477, 653, 893, 973, 1037, 1101, 1293, 1389, 1629, 1645, 1677, 1677, 1693, 1837, 1869, 1885, 2061, 2061, 2157, 2189, 2397, 2477, 2477, 2621, 2909, 2957, 3101, 3101, 3165, 3357, 3501, 3501, 3629, 3661, 3661, 3725, 3805, 3981, 4013, 4013, 4013, 4029, 4045, 4093, 4141, 4333, 4413, 4573, 4573, 4733, 4941, 4989, 5085, 5101, 5181, 5213, 5229, 5245, 5277, 5293, 5549, 5597, 5613, 5693, 5997, 6109, 6365, 6365, 6509, 6973, 7053, 7133, 7133, 7149, 7165, 7437, 7453, 7453, 7469, 7517, 7677, 7997, 8093, 8141, 8205, 8461, 8541, 8669, 8701, 8973, 9021, 9101, 9213, 9261, 9277, 9309, 9325, 9469, 9501, 9517, 9613, 9613, 9773, 9901, 9901, 9933, 9949, 9981, 9981, 9997, 10205, 10317, 10317, 10365, 10541, 10621, 10765, 10909, 11005, 11133, 11133, 11229, 11341, 11437, 11549, 11581, 11821, 12237, 12253, 12333, 12413, 12445, 12477, 12541, 12589, 12813, 12845, 12925, 12973, 13021, 13069, 13165, 13197, 13213, 13229, 13325, 13341, 13405, 13485, 13533, 13693, 13709, 13869, 13885, 14029, 14317, 14333, 14365, 14413, 14541, 14541, 14637, 14669, 14669, 14749, 14861, 14957, 15037, 15117, 15149, 15165, 15213, 15245, 15645, 15693, 15693, 15789, 15837, 15901, 15949, 15997, 16109, 16141, 16141, 16141, 16269, 16269, 16429, 16445, 16525, 16605, 16717, 16733, 16957, 17117, 17245, 17261, 17373, 17421, 17597, 17725, 17757, 17773, 17789, 18029, 18045, 18077, 18189, 18237, 18269, 18429, 18557, 18589, 18621, 18845, 18941, 18957, 18973, 19021, 19101, 19181, 19309, 19389, 19469, 19517, 19613, 19629, 19645, 19677, 19837, 19885, 20013, 20109, 20109, 20141, 20205, 20445, 20749, 20877, 20893, 21037, 21293, 21437, 21469, 21597, 21597, 21597, 21709, 21789, 22077, 22109, 22189, 22189, 22317, 22349, 22349, 22461, 22493, 22621, 22701, 22717, 22829, 22893, 23085, 23245, 23245, 23309, 23437, 23453, 23549, 23597, 23693, 23805, 23901, 24029, 24029, 24077, 24093, 24109, 24237, 24301, 24493, 24653, 24717, 24733, 24781, 24797, 25037, 25181, 25437, 25517, 25549, 25757, 26029, 26077, 26333, 26381, 26461, 26541, 26541, 26733, 26765, 26765, 26797, 26845, 26877, 26989, 27037, 27117, 27149, 27149, 27309, 27469, 27565, 27613, 27805, 27885, 28013, 28237, 28317, 28429, 28477, 28749, 28845, 28861, 28909, 29021, 29101, 29469, 29485, 29533, 29581, 29581, 29949, 29997, 30061, 30061, 30157, 30397, 30637, 30765, 30781, 30877, 30877, 31005, 31117, 31245, 31261, 31421, 31469, 31565, 31869, 31901, 32093, 32093, 32333, 32365, 32445, 33053, 33053, 33069, 33133, 33181, 33325, 33341, 33389, 33469, 33581, 33597, 33645, 33917, 34077, 34077, 34125, 34205, 34221, 34237, 34285, 34429, 34525, 34685, 34685, 34749, 34909, 35149, 35213, 35245, 35437, 35517, 35693, 35709, 35901, 36029, 36301, 36333, 36365, 36381, 36413, 36413, 36509, 36637, 36653, 36717, 36781, 36781, 36893, 37005, 37053, 37085, 37101, 37117, 37197, 37213, 37229, 37229, 37357, 37709, 38493, 38589, 38749, 38813, 38813, 38861, 39037, 39085, 39165, 39373, 39373, 39437, 39613, 39821, 39853, 39917, 39933, 39997, 40077, 40525, 40813, 40813, 41117, 41213, 41261, 41341, 41453, 41517, 41517, 41629, 41661, 41853, 42141, 42333, 42333, 42413, 42445, 42445, 42509, 42525, 42621, 42781, 43309, 43341, 43357, 43373, 43389, 43437, 43469, 43485, 43501, 43581, 43661, 43677, 43677, 43709, 43885, 43901, 43901, 43949, 43981, 44077, 44253, 44477, 44589, 44813, 44813, 45005, 45037, 45357, 45821, 45949, 45965, 46013, 46061, 46077, 46109, 46125, 46221, 46381, 46381, 46461, 46573, 46621, 46989, 47101, 47341, 47389, 47421, 47533, 47581, 47645, 47645, 47741, 48173, 48205, 48365, 48381, 48477, 48573, 48669, 48749, 48797, 48893, 48989, 49021, 49037, 49149, 49181, 49213, 49261, 49309, 49325, 49437, 49645, 49789, 49853, 49901, 49901, 49933, 49997, 50093, 50125, 50477, 50669, 50669, 50797, 50845, 50989, 50989, 51277, 51277, 51373, 51629, 52093, 52317, 52445, 52541, 52653, 52797, 52861, 52925, 52941, 53037, 53181, 53405, 53533, 53613, 54317, 54365, 54381, 54413, 54413, 54413, 54461, 54477, 54493, 54541, 54573, 54605, 54685, 54685, 54781, 54989, 55053, 55069, 55165, 55325, 55389, 55517, 55693, 55837, 55869, 55869, 55869, 55869, 55965, 56109, 56125, 56157, 56189, 56205, 56221, 56653, 56733, 56733, 56749, 57021, 57069, 57517, 57517, 57517, 57517, 57581, 57597, 57661, 57789, 57837, 57869, 57933, 58077, 58125, 58125, 58237, 58557, 58861, 59133, 59197, 59517, 59549, 59597, 59661, 59693, 59693, 60045, 60093, 60253, 60253, 60285, 60493, 60589, 60621, 60781, 60861, 61005, 61069, 61245, 61581, 61677, 61709, 61757, 61869, 61917, 61965, 62029, 62317, 62429, 62877, 62877, 62893, 62941, 63037, 63373, 63437, 63453, 63453, 63453, 63485, 14, 126, 238, 302, 350, 398, 734, 814, 1182, 1262, 1438, 1454, 1582, 1614, 1646, 1710, 1726, 1806, 1966, 2126, 2334, 2462, 2462, 2510, 2558, 2574, 2606, 2606, 2622, 2766, 2782, 2846, 2942, 3150, 3470, 3502, 3646, 3662, 4094, 4126, 4174, 4238, 4334, 4558, 4718, 4750, 4798, 4830, 4878, 4942, 5022, 5278, 5326, 5358, 5422, 5806, 5902, 6158, 6254, 6318, 6350, 6366, 6398, 6398, 6414, 6462, 6558, 6558, 6638, 6878, 6990, 7246, 7310, 7342, 7518, 7566, 7950, 7966, 7982, 8014, 8046, 8110, 8142, 8174, 8446, 8766, 8894, 9374, 9646, 9646, 9822, 9902, 9902, 9998, 10078, 10158, 10206, 10398, 10590, 10606, 10750, 10830, 10878, 10894, 10926, 10974, 10974, 11182, 11230, 11262, 11310, 11326, 11374, 11822, 11982, 12078, 12302, 12430, 12510, 12510, 12670, 12766, 13070, 13118, 13182, 13390, 13838, 13870, 13886, 13886, 14158, 14254, 14286, 14414, 14558, 14558, 14734, 14974, 15038, 15182, 15182, 15326, 15374, 15534, 15598, 15710, 15774, 15790, 15790, 16030, 16142, 16350, 16670, 16718, 16974, 16974, 16974, 17022, 17070, 17214, 17262, 17390, 17742, 17758, 18014, 18158, 18222, 18238, 18286, 18302, 18302, 18430, 18430, 18574, 18622, 18622, 18798, 19246, 19326, 19502, 19534, 19598, 19726, 19758, 19886, 20110, 20110, 20126, 20206, 20334, 20446, 20446, 20510, 20526, 20542, 20574, 20574, 20798, 20830, 20878, 20990, 21038, 21086, 21134, 21438, 21454, 21694, 21790, 21918, 22046, 22110, 22142, 22222, 22238, 22302, 22350, 22350, 22414, 22430, 22478, 22942, 22942, 22990, 23070, 23118, 23150, 23214, 23246, 23790, 23806, 23886, 24030, 24030, 24062, 24158, 24174, 24254, 24350, 24382, 24414, 24446, 24446, 24478, 24734, 24750, 24878, 24894, 25118, 25342, 25566, 25646, 25838, 25838, 25854, 25918, 25934, 25934, 25982, 26046, 26046, 26062, 26062, 26270, 26318, 26430, 26446, 26478, 26478, 26494, 26638, 26654, 26686, 26782, 26830, 26846, 26878, 26990, 27134, 27166, 27262, 27310, 27598, 27886, 27998, 28158, 28270, 28286, 28382, 28398, 28542, 28558, 28606, 28654, 28766, 28846, 28958, 29150, 29758, 29790, 29822, 29886, 29934, 29966, 30014, 30174, 30478, 30750, 30766, 30766, 30926, 30958, 31374, 31454, 31822, 32062, 32094, 32206, 32366, 32398, 32446, 32494, 32622, 32670, 32686, 32718, 32798, 32974, 33150, 33358, 33374, 33390, 33406, 33486, 33534, 33566, 33582, 33614, 33774, 33822, 33934, 33982, 33982, 34078, 34254, 34270, 34350, 34382, 34526, 34590, 34670, 34798, 34990, 35102, 35246, 35358, 35374, 35454, 35598, 35694, 35838, 35918, 35950, 35966, 36014, 36366, 36494, 36494, 36510, 36558, 36638, 36702, 36702, 36958, 37022, 37134, 37166, 37230, 37246, 37278, 37278, 37358, 37518, 37534, 37614, 37822, 37838, 37886, 37934, 38046, 38334, 38414, 38814, 38814, 38990, 38990, 39070, 39182, 39294, 39326, 39390, 39422, 39614, 39790, 39870, 39918, 40110, 40142, 40158, 40286, 40302, 40750, 40750, 40750, 40766, 40814, 40814, 40910, 41102, 41390, 41422, 41486, 41646, 41662, 41886, 42142, 42174, 42302, 42398, 42494, 42542, 42734, 42894, 42910, 43086, 43310, 43406, 43470, 43566, 43662, 43838, 43902, 43934, 43934, 43966, 43982, 43982, 43998, 43998, 43998, 44030, 44062, 44238, 44334, 44462, 44542, 44558, 44558, 44558, 44590, 44622, 44750, 44942, 45246, 45310, 45710, 45886, 45966, 46014, 46062, 46222, 46222, 46366, 46414, 46462, 46494, 46622, 46718, 46958, 47342, 47454, 47502, 47646, 47742, 47870, 47886, 48094, 48270, 48270, 48318, 48366, 48382, 48430, 48574, 48574, 48622, 48750, 49006, 49054, 49102, 49118, 49278, 49342, 49598, 49598, 49614, 49694, 49774, 49822, 49934, 49950, 50190, 50206, 50334, 50334, 50398, 50430, 50430, 50510, 50510, 50638, 50638, 50654, 50670, 50670, 50686, 50878, 50910, 50910, 50990, 51038, 51118, 51150, 51214, 51422, 51518, 51646, 51934, 52126, 52286, 52366, 52430, 52558, 52654, 52862, 52926, 52942, 52958, 53230, 53406, 53566, 53838, 54286, 54334, 54334, 54350, 54414, 54478, 54574, 54574, 54670, 54686, 54782, 54782, 54798, 54814, 54814, 55166, 55390, 55406, 55598, 55646, 55758, 55758, 55854, 55854, 55902, 55966, 55982, 55998, 55998, 56110, 56350, 56478, 56558, 56622, 56670, 56702, 56734, 56942, 56942, 57262, 57294, 57406, 57438, 57598, 57998, 58078, 58174, 58174, 58190, 58382, 58510, 58686, 58894, 58942, 58958, 59038, 59518, 59534, 59598, 59694, 59726, 59774, 59886, 59918, 59966, 59998, 60142, 60990, 61006, 61054, 61054, 61166, 61166, 61326, 61406, 62046, 62126, 62190, 62798, 63006, 63070, 63086, 63086, 63310, 63310, 63358, 63358, 63438, 63486, 63534, 63582, 63646, 63694, 15, 31, 63, 95, 175, 271, 287, 399, 559, 799, 911, 1103, 1167, 1231, 1503, 1519, 1695, 1711, 1839, 1903, 1903, 2015, 2063, 2063, 2335, 2351, 2447, 2463, 2527, 2527, 2559, 3103, 3215, 3487, 3487, 3503, 3535, 3679, 3839, 3919, 3919, 3983, 3983, 4079, 4175, 4207, 4271, 4303, 4303, 4527, 4623, 4735, 4751, 4799, 5103, 5167, 5199, 5247, 5311, 5391, 5423, 5711, 5759, 5791, 5823, 5823, 5903, 5919, 6031, 6111, 6319, 6415, 6623, 6639, 6639, 6655, 6927, 6943, 6959, 7103, 7135, 7215, 7279, 7279, 7279, 7295, 7311, 7311, 7311, 7407, 7519, 7535, 7743, 7807, 7855, 7999, 8127, 8159, 8191, 8239, 8271, 8703, 8703, 8703, 8703, 8719, 8767, 9167, 9199, 9199, 9215, 9327, 9343, 9439, 9455, 9471, 9487, 9551, 9615, 9615, 9695, 9823, 9935, 9951, 10207, 10399, 10431, 10447, 10511, 10543, 10591, 10671, 10719, 11247, 11247, 11375, 11391, 11503, 11503, 11535, 11535, 11823, 11871, 11935, 11999, 11999, 12191, 12207, 12239, 12319, 12319, 12383, 12415, 12431, 12431, 12463, 12527, 12559, 12735, 12799, 12911, 12975, 12991, 13231, 13471, 13551, 13887, 13887, 13903, 14095, 14159, 14303, 14351, 14415, 14479, 14495, 14607, 14655, 14751, 14911, 14991, 15103, 15151, 15151, 15199, 15247, 15279, 15295, 15295, 15311, 15311, 15455, 15775, 15807, 15807, 15807, 15983, 16079, 16255, 16271, 16591, 16607, 16623, 16943, 16959, 17039, 17279, 17327, 17519, 17551, 17583, 17615, 17695, 17695, 18223, 18271, 18287, 18319, 18335, 18383, 18415, 18495, 18559, 18623, 18687, 18831, 18879, 18911, 19039, 19167, 19215, 19231, 19439, 19487, 19567, 19631, 19631, 19919, 19919, 20047, 20079, 20207, 20223, 20287, 20383, 20463, 20575, 20927, 21199, 21199, 21215, 21215, 21871, 22031, 22159, 22159, 22239, 22287, 22367, 22415, 22431, 22431, 22543, 22623, 22655, 22671, 22767, 22895, 22927, 22943, 23119, 23167, 23167, 23343, 23359, 23535, 23535, 23967, 23999, 23999, 24127, 24143, 24175, 24255, 24271, 24351, 24415, 24431, 24559, 24815, 24991, 25055, 25119, 25119, 25199, 25199, 25279, 25311, 25391, 25679, 25775, 25919, 25935, 25983, 25999, 26127, 26255, 26255, 26271, 26415, 26431, 26431, 26447, 26511, 26543, 26623, 26719, 26847, 27039, 27247, 27247, 27455, 27535, 27791, 27887, 27999, 28159, 28207, 28335, 28719, 28863, 28943, 29583, 29663, 29695, 30047, 30079, 30223, 30687, 30815, 30815, 30863, 31071, 31135, 31135, 31327, 31343, 31359, 31423, 31423, 31455, 31567, 31599, 31935, 32095, 32223, 32319, 32351, 32367, 32415, 32511, 32719, 32767, 32863, 33007, 33055, 33151, 33295, 33359, 33455, 33455, 33503, 33775, 33791, 33823, 33855, 34079, 34623, 34671, 35231, 35295, 35599, 35663, 35727, 35791, 36047, 36175, 36495, 36543, 36543, 36831, 37231, 37231, 37311, 37311, 37375, 37391, 37823, 37823, 38191, 38223, 38415, 38543, 38543, 38991, 39183, 39231, 39231, 39343, 39439, 39535, 39631, 39647, 39727, 39775, 39871, 39935, 39983, 40047, 40063, 40495, 40511, 40639, 40831, 41455, 41519, 41599, 41743, 41807, 41839, 41887, 41903, 41935, 41935, 41999, 42127, 42239, 42303, 42543, 42591, 42607, 42735, 43119, 43215, 43279, 43423, 43423, 43503, 43535, 43567, 43695, 43743, 43775, 43935, 43967, 43983, 44047, 44047, 44095, 44351, 44351, 44431, 44447, 44591, 44639, 44639, 44719, 44895, 45007, 45055, 45103, 45183, 45647, 45871, 45919, 45999, 45999, 46079, 46079, 46223, 46271, 46415, 46495, 46543, 46623, 46895, 47055, 47167, 47231, 47279, 47279, 47311, 47343, 47407, 47407, 47455, 47535, 47535, 47647, 47711, 47711, 47823, 48335, 48479, 48495, 48575, 48719, 48815, 48879, 48991, 49007, 49103, 49135, 49343, 49407, 49551, 49583, 49663, 49759, 49791, 49807, 49855, 49855, 49935, 49951, 49983, 50159, 50159, 50223, 50335, 50367, 50415, 50415, 50415, 50431, 50527, 50559, 50591, 50671, 50671, 50799, 50831, 50991, 51055, 51055, 51055, 51087, 51119, 51327, 51327, 51663, 52079, 52175, 52207, 52207, 52335, 52367, 52559, 52735, 52879, 52895, 52943, 52975, 53023, 53055, 53199, 53311, 53391, 53407, 53407, 53423, 53455, 53695, 53999, 54063, 54111, 54511, 54575, 54575, 54575, 54687, 54751, 54783, 54831, 54831, 54863, 54879, 54879, 55119, 55183, 55199, 55199, 55295, 55391, 55391, 55423, 55423, 55535, 55551, 55583, 55647, 55791, 55807, 55839, 56031, 56079, 56175, 56239, 56335, 56351, 56607, 56639, 56895, 56895, 57039, 57071, 57183, 57487, 57695, 57695, 57855, 57935, 57967, 58159, 58223, 58239, 58431, 58639, 58719, 58735, 58767, 58767, 58847, 59119, 59151, 59199, 59487, 59695, 59807, 59887, 59935, 59951, 60431, 60815, 60879, 60879, 60943, 61103, 61135, 61135, 61167, 61343, 61711, 61807, 61807, 62287, 62655, 62671, 62719, 62799, 62847, 62847, 62863, 63151, 63279, 63311, 63551, 63583, 63775, 63807]
AAH: [17709]
AB: [19544]
ABACK: [61029, 23510, 44029]
ABACUS: [30694]
ABANDON: [8929, 48676, 33461, 43829, 44774, 47286, 27111, 28119, 47143, 52615, 57015, 59479, 57016, 8154, 10202, 43514, 44010, 43675, 49371, 52555, 54220, 33421, 51949, 62606, 30367]
ABANDONED: [16048, 43456, 46688, 51872, 52384, 60625, 46034, 46626, 10403, 25299, 58307, 28452, 43604, 62404, 14661, 20773, 46693, 47317, 47349, 55669, 8422, 10406, 36742, 56150, 56150, 7864, 36824, 43704, 28377, 43833, 44777, 47369, 57017, 25034, 35995, 37099, 55643, 29932, 47372, 58316, 58732, 33421, 41565, 48077, 49437, 61389, 35950, 36062, 46670, 51870, 10431, 47311, 56159, 60655]
ABANDONING: [25585, 17554, 30626, 29075, 46707, 56147, 8932, 37140, 63828, 40725, 43701, 61493, 56198, 63734, 43463, 43799, 56167, 32410, 36923, 43499, 43596, 46684, 49358, 52398, 43791, 56207]
ABANDONMENT: [49360, 49408, 57760, 43779, 52051, 49382, 47079, 43864, 36921, 37097, 36907, 50043, 43756, 43581]
ABANDONS: [63732]
ABASEMENT: [31779]
ABASHED: [10901, 10901, 37397, 40197, 54518, 23272, 19881, 46393, 24138, 23277, 6734, 20494, 23279]
ABATE: [59644, 59646]
ABBE: [243, 515, 1107, 18915, 43955, 516, 43988, 342, 358, 392, 1080, 1097, 331, 523, 1099, 380, 541, 43981, 111]
ABBREVIATIONS: [19490]
ABC: [4591]
ABDICATE: [62090]
ABDOMEN: [42947, 42806]
ABDOMENS: [46096, 46089]
ABDUCTION: [30672, 31362, 31517]
ABDUCTORS: [31055]
ABHORRENCE: [59828]
ABILITY: [438, 37094, 52602, 59453]
ABLAZE: [48689, 53909]
ABLE: [2624, 11744, 20784, 38000, 21009, 33361, 33905, 34497, 37121, 41729, 44385, 57121, 10562, 22786, 32018, 32802, 33826, 34514, 34834, 2499, 3683, 26035, 30259, 740, 10884, 25396, 28372, 36788, 38852, 39412, 50788, 56724, 59476, 10469, 22885, 31237, 38645, 51349, 59205, 13782, 15846, 20230, 29862, 46774, 51414, 58038, 59478, 59910, 2023, 14599, 18455, 30119, 34775, 40551, 10440, 15336, 19896, 30024, 32504, 33512, 34232, 60088, 28457, 33081, 33769, 35721, 49193, 52105, 61609, 8362, 8794, 9562, 9994, 11818, 22954, 26682, 38890, 39434, 53962, 8971, 12011, 14651, 33627, 44219, 44395, 5228, 5900, 14716, 24732, 32268, 39613, 50269, 50733, 1918, 26958, 32782, 32798, 34494, 36318, 43070, 43246, 51374, 2367, 4719, 15279, 26719, 57423]
ABNEGATION: [91, 56797]
ABNORMAL: [35032]
ABNORMALLY: [3722]
ABODES: [52719]
ABOLISHING: [22275]
ABOLITION: [35012]
ABOMINABLE: [8817, 8817, 8818, 49634, 31064, 45416, 45404]
ABOMINABLY: [44578]
ABOUNDING: [52556]
[...]
YOUNG: [224, 368, 416, 1696, 1920, 1952, 2592, 2672, 8048, 10928, 13184, 13264, 15472, 15472, 17248, 17280, 20464, 22816, 23104, 23936, 25056, 25456, 25888, 27600, 29568, 30992, 44176, 44832, 45184, 49680, 49696, 59936, 305, 385, 1953, 2113, 2177, 5169, 5505, 8049, 10705, 12865, 15825, 16929, 17233, 17441, 19137, 19825, 21265, 22849, 24065, 25985, 27233, 27793, 27841, 29873, 37057, 44545, 49009, 60993, 61313, 274, 514, 594, 1762, 2002, 2018, 2066, 2546, 2546, 3234, 3234, 3634, 4034, 4690, 4706, 11698, 11698, 15314, 17506, 18482, 18498, 18914, 19570, 19746, 23298, 23666, 25794, 26130, 27826, 28834, 34706, 41906, 46482, 46882, 46898, 49186, 55058, 55906, 275, 2035, 2051, 6035, 10739, 12675, 15331, 15491, 17443, 18339, 18579, 20499, 20643, 25411, 26243, 27507, 27571, 29171, 29731, 29779, 33139, 33731, 36803, 43827, 46899, 50019, 57379, 58611, 60979, 61299, 61427, 308, 2788, 4212, 5828, 12484, 13540, 14436, 15268, 15476, 17492, 19412, 24196, 25860, 26132, 26548, 26964, 29972, 30900, 34100, 34724, 35476, 43892, 44820, 46356, 46996, 48052, 49540, 52180, 54420, 59924, 309, 517, 1781, 2069, 4437, 4677, 4981, 8277, 11733, 12661, 14453, 15877, 15941, 16021, 21221, 23349, 26773, 28693, 28981, 31013, 34373, 39973, 40053, 41909, 44469, 46869, 48005, 48853, 50021, 51173, 614, 1158, 1446, 1990, 4390, 4454, 7318, 9926, 10550, 11814, 13078, 14438, 15334, 17942, 20486, 23286, 25126, 25190, 25878, 26518, 28454, 28838, 32070, 35350, 37254, 42006, 43878, 44182, 46406, 50022, 54854, 58134, 59734, 61094, 61910, 62518, 551, 1159, 1447, 2791, 4039, 6887, 10999, 13095, 16599, 17159, 17239, 21223, 23063, 24663, 24663, 24983, 25879, 26471, 28695, 32791, 37431, 42023, 44887, 44935, 46887, 46903, 48631, 49303, 49591, 50967, 57639, 59815, 60631, 61655, 1800, 2952, 3256, 4680, 6536, 14424, 14440, 16040, 17240, 22216, 23640, 26184, 26328, 28824, 35432, 35464, 37928, 38312, 39384, 39512, 42360, 46872, 49192, 50776, 51000, 61720, 1881, 1929, 3065, 4489, 4745, 6665, 7305, 9929, 10569, 10729, 10985, 12873, 15321, 15945, 17241, 19113, 22185, 23369, 24985, 25801, 25817, 26713, 27241, 28985, 30825, 33961, 34553, 36377, 40361, 48745, 49897, 58937, 60169, 266, 346, 2682, 2890, 3482, 6666, 6938, 13178, 15834, 15898, 16042, 23994, 28282, 30138, 35370, 49018, 49018, 907, 1099, 1563, 2875, 3355, 6555, 22043, 22187, 23883, 26427, 28283, 35563, 40987, 41867, 41995, 57371, 380, 2012, 2028, 2300, 3468, 6716, 6908, 10812, 12684, 14844, 17244, 17420, 18140, 19916, 20412, 20444, 20684, 21420, 26508, 27580, 28476, 28844, 31004, 33052, 34028, 37020, 37756, 40012, 40028, 46892, 48940, 48940, 49196, 54476, 56828, 61404, 4525, 4765, 6861, 15789, 17245, 17853, 26941, 32621, 33453, 33933, 39373, 45229, 46349, 49677, 49997, 54957, 1838, 3358, 4702, 4750, 5326, 8046, 11006, 12686, 14446, 15326, 16078, 16190, 27262, 27470, 27790, 28462, 28782, 29198, 29214, 34030, 42014, 43934, 46878, 61934, 3135, 4751, 6895, 9199, 16079, 17439, 19231, 23263, 24143, 25983, 27839, 29519, 36815, 42063, 42143, 45055]
YOUNGER: [3376, 24032, 13329, 39441, 39556, 44100, 1909, 10933, 166, 4134, 10598, 16054, 2615, 9351, 4328, 4345, 28633, 35273, 2058, 29243, 1932, 53804, 37021, 44030, 50990, 53806, 53822, 57790, 20815, 22095, 24031, 35567]
YOUNGEST: [44722, 1683, 50996, 1895, 1911, 10599, 155, 2620, 48765, 4158, 48750]
YOUNGSTER: [55045]
YOUNGSTERS: [2053]
YOUR: [144, 144, 2256, 4464, 5984, 6880, 7552, 8416, 8720, 8864, 12016, 17600, 18496, 18800, 25120, 25392, 31424, 31792, 32304, 32800, 34128, 34160, 35840, 38096, 38384, 38592, 38944, 40016, 40400, 40432, 44000, 45200, 47184, 47184, 50080, 52464, 52720, 52720, 52720, 57744, 57744, 58912, 1057, 1873, 2769, 4753, 5009, 5409, 5569, 5953, 6785, 7057, 10305, 10385, 11153, 11361, 13969, 14465, 16353, 17825, 18129, 18353, 18369, 18497, 18641, 18801, 19985, 20081, 20225, 21233, 21457, 23441, 23665, 25921, 28913, 29393, 30289, 30865, 31105, 32289, 32289, 38785, 42609, 44081, 45217, 46321, 47777, 47825, 49361, 52113, 53777, 55457, 55857, 57169, 59249, 59937, 61393, 226, 2514, 2578, 2882, 3890, 3890, 4626, 5634, 5826, 7218, 7618, 8130, 8514, 8834, 9090, 10018, 10306, 11266, 11778, 12082, 12114, 13698, 14066, 14066, 14354, 15602, 16354, 18370, 19458, 19474, 19554, 21202, 22034, 22354, 26546, 27858, 29042, 30306, 30610, 31490, 31762, 32754, 32802, 33778, 34114, 35266, 36802, 38562, 38562, 38786, 40706, 41906, 42386, 44530, 44930, 45218, 46242, 47522, 52098, 52722, 54770, 54802, 58434, 58898, 61394, 2355, 3107, 3107, 4739, 5203, 8083, 8467, 9795, 11251, 12067, 14467, 16435, 17651, 18323, 18723, 19299, 21011, 22035, 22563, 24579, 25507, 26659, 28995, 30851, 31075, 31715, 31763, 31763, 32867, 36579, 36819, 36835, 37123, 38515, 39091, 40739, 43763, 44099, 45811, 46227, 46819, 46819, 51699, 51699, 52659, 52691, 52723, 54787, 55331, 60259, 61395, 36, 1156, 2516, 2740, 4004, 5028, 5332, 5476, 5604, 5860, 7028, 7444, 8100, 8148, 8420, 10804, 11716, 12196, 13508, 13572, 14036, 14068, 14404, 14724, 18484, 21764, 22356, 22372, 22388, 23620, 25108, 27140, 30724, 30884, 31460, 31716, 32292, 32836, 36516, 38564, 39268, 40740, 41156, 41556, 49508, 50196, 52084, 52676, 57508, 57508, 677, 1061, 1653, 1893, 2325, 2853, 4389, 5893, 7717, 9269, 11733, 13893, 15445, 15541, 16485, 18261, 18373, 18613, 18837, 19589, 20901, 25109, 25141, 29221, 29301, 30069, 31093, 34261, 34501, 35653, 37381, 38725, 38741, 39397, 40821, 43685, 44277, 44405, 44405, 45829, 46581, 46581, 46821, 47733, 48773, 53013, 53653, 53653, 58901, 58917, 166, 678, 3270, 4726, 4966, 6038, 7014, 8614, 10006, 11718, 11878, 14022, 14582, 16390, 16390, 16758, 18502, 18710, 19286, 20486, 22006, 22518, 25110, 28790, 29222, 30294, 32438, 32534, 38726, 40742, 41558, 43910, 44294, 46822, 47142, 48422, 49462, 49462, 50918, 53062, 599, 983, 1095, 2231, 3239, 3831, 3975, 5255, 5575, 5815, 5831, 7719, 8199, 8407, 10375, 10391, 10455, 11959, 13927, 14343, 15687, 17255, 18151, 18151, 18551, 20295, 21031, 21495, 26039, 26071, 29175, 29239, 30615, 30903, 30935, 31095, 31335, 31463, 31783, 31783, 32439, 32791, 32807, 35287, 35287, 38007, 38327, 38391, 38647, 38951, 40439, 40743, 40743, 42839, 44199, 44519, 44935, 45191, 49191, 49255, 51559, 52007, 52087, 52663, 56071, 56071, 184, 216, 568, 2296, 4456, 4968, 5208, 5528, 5992, 8888, 9368, 9704, 10344, 10440, 11256, 11992, 12264, 15240, 15608, 16904, 18952, 19416, 20632, 21208, 21640, 22376, 22456, 24008, 31640, 32440, 32728, 34120, 37288, 38840, 39080, 40440, 41896, 41944, 42536, 44120, 46248, 47736, 48424, 49464, 50952, 52664, 52680, 52712, 60008, 60040, 61176, 61480, 681, 1401, 2201, 3977, 4649, 4745, 5241, 5801, 5817, 5817, 5817, 6025, 6777, 8105, 8633, 9113, 9801, 10441, 11257, 11257, 12025, 12713, 14073, 15481, 17497, 18489, 18857, 18953, 20089, 20089, 20089, 20665, 21753, 22553, 22553, 25113, 25401, 32729, 37977, 39577, 41593, 41593, 41593, 45865, 46761, 47017, 47737, 49257, 52009, 52489, 52665, 52681, 52745, 55817, 57865, 58905, 59097, 59945, 2058, 2410, 2410, 3834, 5466, 6298, 6330, 6474, 7066, 7194, 8106, 8362, 8794, 9098, 9642, 10010, 10394, 10650, 12026, 13066, 14346, 15610, 16762, 17834, 18858, 19610, 21018, 22010, 22458, 23514, 24538, 25178, 26410, 27514, 29242, 29450, 30858, 30858, 32698, 36810, 36810, 38586, 39226, 39226, 40666, 40698, 41802, 43530, 43738, 45370, 46730, 46842, 46842, 53850, 54906, 55322, 57386, 155, 2635, 2715, 3403, 4651, 4731, 6539, 6587, 8155, 8795, 9099, 10171, 10571, 10651, 13531, 14459, 16827, 18603, 18811, 18859, 21739, 22363, 23899, 24731, 25643, 29723, 30107, 30507, 30891, 31115, 32299, 32427, 38203, 38347, 38571, 39099, 40411, 40715, 40747, 41163, 41963, 43691, 44395, 49259, 54523, 55083, 572, 1100, 1292, 1340, 2268, 2972, 4620, 5820, 9100, 9500, 9804, 10572, 10796, 10892, 11452, 11628, 11740, 12012, 19996, 21228, 21740, 23276, 26588, 31100, 31100, 31116, 31612, 32300, 32540, 32540, 32860, 39580, 40412, 46748, 48828, 49372, 52684, 52716, 52716, 60028, 2509, 3853, 5197, 5373, 5373, 5805, 7021, 7453, 8621, 8877, 10733, 11501, 11613, 11629, 13053, 13261, 14029, 15309, 15901, 16349, 16477, 18493, 18493, 18589, 18717, 18813, 19997, 21453, 22365, 23597, 24989, 25805, 29229, 29549, 31485, 32477, 38733, 39677, 42653, 43997, 44301, 46733, 46749, 46813, 48893, 49853, 50573, 51229, 52685, 54525, 57197, 59949, 60061, 3886, 6446, 9246, 9262, 10110, 10238, 11118, 11630, 12542, 13998, 14046, 14494, 16382, 17582, 17646, 18702, 20094, 24542, 29710, 30126, 30542, 35118, 38718, 41102, 45854, 49070, 49614, 49854, 52718, 59102, 191, 1215, 2415, 3087, 5215, 5839, 5839, 6255, 7199, 8175, 8191, 9647, 10463, 11471, 12031, 12063, 12111, 12239, 12543, 13951, 14991, 16351, 16383, 16655, 17487, 17903, 20223, 25087, 25103, 25391, 30831, 31455, 31775, 32303, 32943, 35503, 37071, 37743, 39039, 39199, 41071, 44079, 44607, 44623, 45871, 47823, 48015, 48015, 49359, 49791, 49855, 52719, 56063, 56607, 59103, 60031]
YOURS: [3904, 194, 2339, 5236, 38340, 58532, 61444, 37413, 45269, 26550, 39593, 45273, 5242, 15610, 205, 8157, 12749, 16701, 18733, 26589, 26589, 55069, 32414, 1903, 12095, 18367]
YOURSELF: [6736, 16560, 20080, 21152, 35280, 42624, 44576, 60528, 1297, 17713, 29201, 44577, 50193, 5826, 9026, 13538, 18498, 25362, 27858, 28530, 31074, 38098, 55506, 61394, 3891, 9795, 11715, 13539, 19555, 20115, 25971, 28531, 32659, 32867, 38371, 54739, 58643, 7284, 15892, 17652, 18484, 32292, 38692, 7013, 16485, 37989, 52101, 18774, 21030, 31398, 31462, 31462, 45734, 49462, 60278, 7, 5559, 10647, 15687, 16487, 19591, 20295, 25207, 30903, 31095, 45255, 54823, 58167, 61175, 3976, 9096, 11432, 20088, 20296, 20296, 20360, 20440, 22616, 25192, 30760, 2505, 6473, 12073, 18857, 23641, 30601, 13594, 39402, 43914, 1243, 1291, 1323, 2139, 3771, 19035, 30107, 1340, 6476, 10572, 21148, 49372, 1245, 9149, 18141, 28621, 48957, 49853, 53085, 60893, 3262, 8622, 9806, 25198, 61662, 4751, 20079, 59935]
YOURSELVES: [6803, 33749, 43174, 52663, 20540]
YOUTH: [15824, 48928, 27537, 35345, 35345, 46529, 46561, 46977, 56801, 2002, 30930, 46546, 15059, 15987, 46515, 46947, 58101, 854, 2790, 13318, 13318, 46598, 4679, 10871, 3528, 29288, 873, 2921, 10617, 34537, 46521, 46969, 30922, 15323, 24523, 12476, 44188, 59340, 31261, 47965, 27918, 46974, 51070, 14431]
YOUTHFUL: [12833, 6531, 8259, 470, 13897, 22169, 24698, 3019, 27435, 20396, 22270, 239, 48383, 53679]
YOUTHFULLY: [4523]
YOUTHFULNESS: [14451, 35352, 4681, 38572]
YOUTHS: [17440, 28770, 14824]
YUKHNOV: [53814]
YUKHNOVNA: [20206]
YUKHNOVO: [20511]
YURI: [15973]
YUSUPOV: [45361]
YUSUPOVA: [24608]
Z: [34939, 34956]
ZAKHAR: [27632, 27714, 27700, 15429, 15430, 27703, 27676, 27709, 27725]
ZAKHARCHENKO: [9528]
ZAKHARINO: [40120]
ZAKHARYCH: [31360, 38752]
ZAKRET: [32187]
ZAKUSKA: [3030]
ZALETAEV: [57627, 57629]
ZAT: [3233, 3210, 3196, 3196, 3197, 3198]
ZAVARZINSK: [26149]
ZAYMISHCHE: [37346, 39123, 38905, 37354]
ZDRZHINSKI: [33986, 34019, 33992, 33993, 34009, 33981, 34015]
ZE: [3264, 9779, 9803, 3196, 3196, 3197, 3198, 3198, 3198]
ZEAL: [52112, 33074, 36003, 34613, 45464, 13274, 32109, 63245, 5903]
ZEALOUS: [57779, 49236, 49255, 23167]
ZEALOUSLY: [32019, 41868]
ZEN: [3230]
ZENITH: [22270]
ZERE: [3233]
ZERO: [63540, 63564]
ZEST: [17305, 28237]
ZHAROV: [26132]
ZHEG: [55416, 55416, 55449, 55449]
ZHERKOV: [10432, 6481, 6162, 7810, 6147, 6499, 7635, 9459, 6148, 6436, 6484, 7108, 10196, 6469, 7717, 6214, 9446, 10358, 6183, 6423, 6471, 9479, 9559, 7624, 7816, 9752, 10392, 6443, 9755, 7084, 10396, 7581, 6478, 7694, 6159, 6431, 7583, 7599, 9455, 9471]
ZHILINSKI: [21472, 21411, 21412, 21476, 21844, 21528, 21417, 21423]
ZIDES: [7676]
ZIGZAG: [56880]
ZIKIN: [7449]
ZINAIDA: [35571]
ZIS: [9803]
ZNAIM: [8800, 8944, 8961, 8993, 8946, 9155, 8964, 8949, 8950, 8953, 8954, 8970, 8955, 8987, 8957, 8943]
ZNAMENKA: [47244]
ZONE: [42280]
ZOOLOGY: [63218, 63238, 63663]
ZU: [40842, 24587]
ZUBOV: [36384, 49102]
ZUBOVA: [5488, 53328, 5492]
ZUBOVSKI: [50453, 50488]
ZUM: [14911]
ZWECK: [40842]
