Input file: odyssey.txt
Output file: odysseyOut.txt
Number of words: 137233
Number of indexes: 6354
Shortest word: O
Longest word: unrighteousness
Time: 180ms
1: [1409, 10124]
101: [9212]
119: [3032]
121: [5255]
1261: [3031]
131: [616]
15: [12259]
171: [5255]
177: [2848]
1878: [2050]
190: [617]
1ST: [616]
212: [2847]
249: [2847]
280: [5258]
289: [6632]
312: [10389]
348: [10124]
43: [3031]
44: [617]
465: [12259]
483: [5244]
50: [1862]
540: [5245]
574: [6678]
619: [3032]
7: [2050]
71: [12258]
75: [12258]
76: [5258]
931: [12919]
940: [12919]
A: [144, 272, 400, 512, 752, 784, 832, 864, 1472, 1856, 1920, 1936, 1968, 2304, 2400, 2736, 2736, 2768, 2816, 3040, 3056, 3216, 3376, 3440, 3536, 3584, 3984, 4112, 4192, 4544, 4704, 4816, 4848, 4944, 5248, 5280, 5280, 5280, 5536, 5696, 5728, 5776, 5776, 6096, 6176, 6176, 6176, 6208, 6432, 6496, 6496, 6880, 6960, 7104, 7152, 7184, 7456, 7792, 7888, 7952, 8032, 8048, 8048, 8192, 8192, 8240, 8272, 8368, 8384, 8400, 8480, 8576, 8576, 8928, 8960, 8992, 9072, 9136, 9776, 9824, 9984, 10064, 10096, 10176, 10176, 10208, 10240, 10336, 10336, 10512, 10656, 10672, 10688, 10688, 10880, 11008, 11280, 11328, 11440, 11488, 11568, 11584, 11632, 11968, 12144, 12208, 12304, 12352, 12480, 12560, 12912, 12944, 13136, 13168, 13216, 13264, 13568, 13680, 13952, 14000, 14048, 14080, 14160, 14384, 177, 241, 401, 753, 849, 881, 1089, 1185, 1345, 1777, 1809, 1985, 2305, 2321, 2641, 2865, 2897, 2945, 2977, 3105, 3249, 3297, 3345, 3377, 3377, 3409, 3409, 3409, 3665, 3745, 3777, 4065, 4113, 4145, 4177, 4449, 4513, 4529, 4545, 4545, 4817, 4897, 5041, 5345, 5377, 5473, 5521, 5521, 5585, 5633, 5777, 5793, 6113, 6481, 6497, 6529, 6721, 6977, 7041, 7041, 7153, 7169, 7233, 7249, 7473, 7649, 7793, 7793, 7873, 7969, 8033, 8241, 8497, 8513, 8897, 8945, 9137, 9201, 9297, 9425, 9441, 9489, 9809, 9809, 9857, 9905, 9921, 10049, 10129, 10177, 10177, 10177, 10305, 10593, 10641, 10769, 10817, 11057, 11425, 11761, 11969, 12113, 12481, 12721, 12993, 13121, 13265, 13553, 13697, 13697, 13793, 13873, 13889, 14097, 14369, 66, 162, 162, 274, 274, 562, 594, 946, 1282, 1394, 2018, 2034, 2626, 2706, 2770, 2802, 2882, 2898, 2930, 2978, 3010, 3042, 3186, 3186, 3218, 3394, 3410, 3554, 3682, 4066, 4338, 4338, 4722, 4882, 5042, 5170, 5282, 5346, 5490, 5698, 5714, 5714, 5778, 5970, 5970, 6066, 6114, 6258, 6258, 6322, 6354, 6530, 6946, 7138, 7378, 7778, 7794, 7874, 8050, 8130, 8178, 8210, 8258, 8306, 8402, 8434, 8514, 8514, 8594, 8722, 8866, 9010, 9042, 9170, 9186, 9218, 9490, 9682, 9794, 10290, 10466, 10722, 10738, 10754, 10882, 11058, 11058, 11058, 11234, 11330, 11554, 11586, 11618, 11778, 11906, 12418, 13122, 13202, 13330, 13506, 13586, 13602, 14018, 14114, 14210, 14354, 14354, 131, 163, 243, 291, 579, 723, 739, 1235, 1235, 1347, 1459, 1683, 1683, 1907, 2035, 2131, 2403, 2691, 2739, 2771, 2899, 2931, 2931, 3523, 3523, 3603, 3635, 3779, 3891, 3955, 4067, 4067, 4211, 4803, 4899, 4931, 4947, 5235, 5475, 5587, 5667, 5715, 5779, 5779, 5987, 5987, 6067, 6275, 6291, 6339, 6579, 6643, 6675, 6691, 6851, 6899, 6931, 7027, 7027, 7107, 7219, 7379, 7459, 7571, 7603, 7875, 8067, 8243, 8275, 8563, 8691, 8707, 8771, 8979, 8979, 9027, 9187, 9219, 9267, 9299, 9331, 9331, 9427, 9491, 9603, 9603, 9619, 9619, 9843, 9907, 10131, 10131, 10147, 10147, 10467, 10691, 10755, 10883, 11059, 11091, 11235, 11251, 11251, 11347, 11427, 11619, 11699, 11763, 12051, 12211, 12211, 12275, 12371, 12387, 12387, 12499, 12659, 12851, 12995, 13043, 13187, 13267, 13331, 13779, 13795, 13923, 14003, 14307, 14387, 148, 372, 436, 516, 532, 580, 692, 756, 964, 1140, 1220, 1236, 1396, 1636, 1684, 1892, 2148, 2356, 2372, 2420, 2596, 2596, 2836, 2916, 2916, 2932, 2964, 2996, 3284, 3300, 3412, 3412, 3780, 3780, 3940, 4180, 4484, 4628, 4660, 4724, 4884, 5044, 5044, 5172, 5220, 5236, 5252, 5252, 5492, 5540, 5540, 5572, 5572, 5604, 5620, 5716, 5716, 5748, 5780, 5956, 5988, 6628, 6868, 6948, 7012, 7124, 7140, 7300, 7364, 7380, 7380, 7396, 7444, 7492, 7988, 7988, 8068, 8132, 8356, 8692, 8804, 9220, 9556, 9892, 10068, 10068, 10132, 10132, 10180, 10756, 11092, 11124, 11236, 11252, 11380, 11412, 11428, 11588, 11684, 11892, 12036, 12036, 12068, 12260, 12292, 12324, 12372, 12388, 12660, 12660, 12868, 13076, 13252, 13492, 13492, 13524, 13572, 13684, 13844, 13924, 13924, 69, 341, 437, 501, 693, 757, 1349, 1349, 1365, 1493, 1685, 1717, 1797, 2037, 2085, 2133, 2229, 2613, 2693, 2917, 3141, 3189, 3205, 3237, 3237, 3269, 3541, 3685, 3781, 4325, 4485, 4485, 4773, 4805, 4821, 4997, 5557, 5653, 5717, 5765, 5781, 5781, 5797, 5957, 5989, 6005, 6341, 6645, 6853, 6853, 7077, 7157, 7285, 7493, 7525, 7557, 7669, 7909, 8133, 8181, 8197, 8309, 8389, 8405, 8501, 8805, 8821, 8853, 8949, 8997, 9109, 9125, 9317, 9333, 9909, 9973, 10149, 10149, 10229, 10373, 10581, 10629, 10869, 10933, 11045, 11173, 11237, 11237, 11253, 11349, 11413, 11493, 11669, 11925, 11989, 11989, 12181, 12325, 12373, 12709, 12725, 12853, 12933, 13125, 13141, 13237, 13605, 13797, 13877, 14085, 14245, 14261, 14277, 70, 166, 198, 310, 646, 646, 774, 918, 1238, 1302, 1302, 1398, 1526, 1542, 1638, 1686, 1734, 1766, 1766, 1910, 2150, 2150, 2182, 2230, 2310, 2550, 2614, 2870, 3110, 3126, 3174, 3446, 3782, 3830, 3830, 3910, 4214, 4486, 4518, 4630, 4646, 4694, 4710, 4726, 5094, 5126, 5270, 5750, 5782, 5942, 5990, 6134, 6294, 6390, 6438, 6438, 6454, 6582, 6614, 6646, 6662, 7286, 7366, 7494, 7510, 7606, 7622, 7718, 7846, 7910, 8038, 8134, 8182, 8262, 8278, 8406, 8534, 8550, 8694, 8710, 8710, 8822, 8838, 8854, 8854, 8870, 9142, 9286, 9286, 9318, 9446, 9878, 9926, 10038, 10038, 10086, 10102, 10118, 10134, 10262, 10374, 10486, 10774, 11046, 11062, 11718, 11798, 11798, 11942, 11990, 12054, 12134, 12182, 12294, 12310, 12566, 12822, 12918, 13238, 13286, 13286, 13446, 13510, 13622, 13670, 13782, 13814, 13830, 14006, 14262, 7, 71, 215, 391, 487, 519, 887, 887, 1111, 1143, 1543, 1575, 1575, 1751, 1895, 1911, 2103, 2151, 2151, 2599, 2615, 2615, 2919, 2983, 3063, 3239, 3431, 3447, 3639, 3655, 3719, 3751, 3927, 4023, 4823, 4935, 5031, 5047, 5079, 5127, 5175, 5223, 5367, 5463, 5543, 5607, 5687, 5767, 5959, 5959, 6039, 6167, 6343, 6455, 7095, 7303, 7303, 7367, 7639, 7815, 7831, 7863, 8039, 8263, 8327, 8359, 8487, 8535, 8631, 8743, 8775, 8791, 8871, 8951, 9799, 9831, 10071, 10071, 10183, 10199, 10407, 10423, 10743, 10775, 10823, 11335, 11479, 11575, 11591, 11687, 11719, 11751, 11879, 11895, 11895, 12279, 12327, 12439, 12567, 12647, 12647, 12647, 12823, 13095, 13175, 13255, 13303, 13527, 13799, 14007, 14279, 216, 216, 248, 344, 360, 360, 392, 456, 456, 904, 1192, 1352, 1400, 1464, 1544, 1688, 1720, 1736, 2008, 2136, 2152, 2520, 2696, 2744, 2760, 2824, 3016, 3080, 3080, 3352, 3384, 3608, 3608, 3624, 3720, 3816, 3880, 4328, 4440, 4504, 4536, 4664, 4680, 4712, 4712, 4792, 4792, 4904, 5032, 5208, 5256, 5352, 5448, 5592, 5752, 5768, 5768, 5960, 6024, 6024, 6040, 6648, 6856, 6952, 7096, 7128, 7256, 7464, 7560, 7752, 7816, 7816, 7832, 7864, 7880, 7880, 7880, 7960, 8040, 8040, 8088, 8136, 8296, 8376, 8728, 8904, 9048, 9192, 9320, 9368, 9896, 10216, 10456, 10488, 10584, 10584, 10872, 11032, 11112, 11144, 11144, 11176, 11368, 11576, 11592, 11608, 11624, 11624, 11704, 11720, 11816, 11896, 12072, 12120, 12136, 12216, 12376, 12424, 12568, 12648, 12664, 12936, 13368, 13400, 13640, 13752, 13928, 14024, 14040, 14232, 249, 313, 329, 489, 505, 537, 745, 889, 889, 1193, 1401, 1433, 1465, 1641, 1817, 1865, 1913, 2025, 2137, 2393, 2665, 2697, 3081, 3769, 3897, 4057, 4233, 4249, 4441, 4457, 4457, 4521, 4521, 4665, 4681, 4697, 5129, 5161, 5257, 5273, 5273, 5273, 5465, 5545, 5625, 5673, 5737, 5769, 6025, 6041, 6105, 6265, 6857, 6873, 7081, 7097, 7385, 7401, 7465, 7465, 7641, 7657, 7753, 7881, 7913, 7945, 7961, 8009, 8185, 8249, 8377, 8393, 8409, 8441, 8457, 8793, 8889, 8889, 9033, 9033, 9161, 9177, 9177, 9273, 9369, 9641, 9673, 9865, 9897, 9961, 10009, 10009, 10073, 10489, 10585, 10905, 11033, 11161, 11177, 11177, 11289, 11385, 11449, 11465, 11785, 11801, 11817, 12025, 12025, 12809, 13401, 13545, 13961, 170, 170, 330, 426, 810, 906, 906, 1018, 1018, 1146, 1242, 1258, 1258, 1258, 1370, 1402, 1418, 1482, 1626, 1754, 1866, 2010, 2138, 2234, 2298, 2378, 2394, 2698, 2730, 2842, 2842, 3050, 3226, 3242, 3498, 3594, 3658, 3706, 3882, 4074, 4186, 4458, 4490, 4650, 4666, 4666, 4874, 4938, 5002, 5082, 5306, 5466, 5466, 5642, 5786, 5834, 6138, 6250, 6442, 6682, 6858, 6986, 7082, 7226, 7402, 7466, 7546, 7546, 7546, 7850, 7962, 7962, 8074, 8090, 8330, 8698, 8810, 9034, 9066, 9146, 9162, 9178, 9194, 9210, 9674, 9706, 9738, 9770, 9898, 10122, 10346, 10346, 10442, 10458, 10490, 10602, 10682, 10714, 10746, 10778, 10986, 11034, 11050, 11210, 11306, 11466, 11802, 11834, 12042, 12234, 12538, 12618, 12810, 13066, 13450, 13530, 14282, 171, 331, 379, 539, 635, 811, 843, 859, 1211, 1227, 1323, 1387, 1627, 1771, 1787, 1803, 2011, 2315, 2827, 3035, 3083, 3211, 3227, 3355, 3403, 3595, 3627, 3627, 4027, 4075, 4347, 4459, 4603, 4651, 4683, 4827, 4891, 4939, 5163, 5259, 5275, 5307, 5355, 5483, 5531, 5611, 5611, 5643, 5771, 5947, 6059, 6171, 6299, 6587, 6731, 6763, 6779, 6875, 6875, 6939, 7387, 7627, 7803, 7835, 8011, 8043, 8251, 8395, 8539, 8651, 8715, 8795, 8923, 9083, 9403, 9403, 9467, 9771, 9851, 9963, 10043, 10283, 10331, 10363, 10667, 11243, 11307, 11435, 11515, 11771, 11947, 12091, 12555, 12795, 13083, 13259, 13259, 13291, 13371, 13851, 172, 188, 188, 332, 364, 380, 748, 796, 844, 860, 1372, 1756, 1772, 1820, 1884, 1948, 1980, 2300, 2428, 2460, 2556, 2668, 2812, 2892, 3020, 3052, 3116, 3340, 3452, 3532, 3548, 3884, 3900, 3932, 3964, 4156, 4188, 4204, 4204, 4284, 4444, 4444, 4444, 4588, 4652, 4668, 4828, 4908, 4972, 5212, 5308, 5356, 5372, 5420, 5564, 5612, 5612, 5644, 5644, 5644, 5772, 6060, 6060, 6204, 6492, 6492, 6508, 6572, 6668, 6780, 6860, 7116, 7228, 7324, 7372, 7372, 7436, 7500, 7548, 7596, 7804, 7820, 8140, 8396, 8588, 8604, 8796, 8876, 8908, 8956, 9100, 9196, 9532, 9724, 9772, 9932, 10028, 10060, 10124, 10444, 10684, 10732, 10780, 10940, 11004, 11036, 11036, 11068, 11132, 11388, 11468, 11468, 11484, 11596, 11836, 11884, 12140, 12156, 12204, 12204, 12220, 12252, 12380, 12428, 12428, 12476, 12860, 12988, 13100, 13532, 13628, 13868, 14028, 14124, 14284, 77, 173, 253, 525, 749, 781, 925, 989, 1069, 1181, 1373, 1485, 1645, 1661, 1677, 1821, 1885, 2189, 2205, 2237, 2317, 2349, 2381, 2461, 2557, 2589, 2669, 2829, 2893, 3053, 3133, 3181, 3197, 3293, 3389, 3533, 3533, 3533, 3549, 3597, 3661, 3709, 3741, 3997, 4173, 4221, 4285, 4413, 4429, 4637, 4669, 4861, 4877, 4909, 5133, 5453, 5453, 5485, 5549, 5773, 5965, 6173, 6237, 6301, 6333, 6509, 6717, 6845, 6925, 7229, 7261, 7533, 7901, 8125, 8125, 8157, 8157, 8173, 8237, 8253, 8269, 8365, 8365, 8589, 8605, 8605, 8909, 9101, 9197, 9293, 9373, 9517, 9549, 9693, 9901, 9901, 9901, 10125, 10173, 10173, 10237, 10301, 10301, 10909, 10973, 11005, 11133, 11437, 11469, 11581, 11645, 11693, 11693, 11693, 12189, 12189, 12205, 12221, 12221, 12381, 12381, 12413, 12429, 12573, 12573, 12669, 12669, 12941, 13469, 13581, 13837, 13901, 13901, 13997, 14237, 14397, 142, 798, 894, 958, 974, 1214, 1470, 1662, 1726, 1806, 1822, 1886, 2222, 2334, 2494, 2702, 2846, 2894, 3118, 3134, 3150, 3246, 3374, 3390, 3390, 3422, 3438, 3502, 3502, 3534, 3614, 3614, 3710, 3934, 4062, 4174, 4174, 4222, 4670, 4686, 4702, 4750, 4830, 4910, 4910, 4910, 4974, 5006, 5038, 5038, 5038, 5070, 5086, 5118, 5118, 5230, 5902, 6078, 6222, 6382, 6430, 6526, 6654, 6734, 6926, 7118, 7182, 7214, 7278, 7406, 7422, 7550, 7598, 7790, 7790, 8110, 8174, 8382, 8574, 8574, 8846, 8862, 8878, 8894, 8958, 9102, 9198, 9310, 9566, 9710, 10014, 10174, 10302, 10526, 10574, 10750, 10878, 11070, 11134, 11358, 11566, 11678, 11838, 11854, 11950, 11982, 11982, 12158, 12238, 12382, 12574, 12638, 12718, 12846, 12926, 13406, 13534, 13630, 13630, 13662, 13838, 13966, 159, 175, 431, 431, 719, 895, 1295, 1343, 1343, 1359, 1519, 1775, 1823, 1871, 2095, 2223, 2511, 2623, 2639, 2719, 2895, 2911, 3007, 3055, 3231, 3295, 3647, 3759, 4031, 4127, 4175, 4191, 4447, 4495, 4703, 4767, 4879, 4895, 5119, 5119, 5247, 5471, 5519, 5903, 5951, 5967, 6495, 6495, 6703, 6735, 6815, 6927, 6975, 7423, 7455, 7839, 7855, 8047, 8079, 8319, 8335, 8447, 8575, 8799, 8863, 8959, 8975, 9167, 9807, 9967, 10031, 10079, 10207, 10207, 10207, 10255, 10511, 10543, 10703, 10783, 10783, 10975, 11087, 11087, 11103, 11279, 11295, 11391, 11679, 11759, 11775, 11791, 11791, 11791, 11935, 12143, 12175, 12175, 12255, 12431, 12559, 12575, 12815, 12927, 13087, 13263, 13263, 13471, 13567, 13631, 13999, 14095]
ABASE: [9333]
ABASHED: [1058, 1069]
ABBOTT: [1833]
ABETTED: [11423]
ABHOR: [5440]
ABIDE: [4864, 6400, 7568, 8096, 8880, 5665, 6225, 6449, 11137, 5874, 11570, 11938, 7763, 8787, 8819, 9171, 2868, 3044, 5412, 6228, 9684, 1525, 8501, 822, 6262, 12630, 13894, 1175, 6423, 8503, 12455, 13559, 953, 10185, 362, 3482, 4026, 11018, 4779, 6939, 8859, 5932, 7340, 7884, 11644, 7709, 5358, 8030, 9998, 639, 11711]
ABIDES: [10800, 9121, 13089, 9126, 6238, 9023]
ABIDEST: [9114]
ABIDETH: [6232]
ABIDING: [3936, 5680, 39, 2889, 892, 5948, 7086, 7183]
ABLE: [9504, 12305, 9363, 100, 5688, 11161]
ABOARD: [1216, 4579, 8195, 8132, 6922, 2827, 8683, 2189, 7375]
ABODE: [6336, 8528, 1217, 4737, 8129, 2210, 8082, 5315, 9940, 14196, 3877, 8725, 11205, 4358, 6742, 8694, 6199, 2616, 2634, 6314, 8122, 5627, 11691, 8956, 925, 2221, 13357, 13917, 14285, 7471]
ABOLISHED: [13828]
ABOLISHES: [6274]
ABOUT: [1232, 3552, 3728, 3904, 5776, 7312, 11600, 14160, 705, 1681, 4305, 5201, 6721, 8337, 9921, 13265, 14001, 530, 3666, 5090, 6706, 7506, 8146, 9250, 9602, 11170, 12642, 12690, 13554, 14370, 2371, 3363, 3507, 3603, 3635, 5123, 5203, 8547, 12051, 12531, 1508, 2148, 5124, 5652, 6244, 7780, 8404, 9332, 10820, 10900, 10916, 12660, 13492, 3333, 4309, 5573, 5989, 10085, 12709, 12837, 13141, 13301, 13765, 13925, 14149, 14309, 3606, 5654, 8342, 9286, 9622, 9958, 1527, 1575, 1911, 3255, 8487, 9703, 11623, 12439, 13815, 168, 1944, 5112, 5960, 6264, 6616, 8344, 9768, 9896, 10280, 10504, 10824, 12312, 13640, 14136, 14216, 1369, 2585, 9705, 11817, 1978, 2698, 4458, 5114, 7178, 7706, 8378, 11242, 11562, 12762, 13162, 11, 811, 1179, 4379, 4475, 4635, 5211, 5835, 5835, 6283, 9739, 11227, 11723, 13499, 13979, 14027, 3468, 4604, 5052, 5356, 5596, 5884, 6060, 6076, 7548, 8204, 10060, 13788, 4877, 5181, 5597, 6077, 6717, 7021, 9389, 9933, 10077, 12749, 1134, 1918, 2702, 2894, 3022, 3870, 4190, 4654, 5118, 5134, 10558, 12846, 13534, 14222, 1631, 3407, 3743, 4831, 6815, 6847, 11055, 12975, 13999, 14015, 14175]
ABOVE: [400, 10640, 4065, 13505, 2562, 4562, 6594, 11299, 11667, 5764, 12852, 13044, 13316, 1317, 2837, 8341, 9909, 2632, 6648, 9640, 10136, 11384, 11480, 3225, 8137, 11257, 7226, 13771, 13835, 2684, 3964, 9053, 8238, 1967, 8895]
ABROAD: [13472, 2449, 402, 2579, 3523, 1268, 3237, 8950, 11350, 2472, 682, 7834, 5948, 11214]
ABSENCE: [8168]
ABSENT: [7]
ABSTAIN: [12023, 10841]
ABUNDANCE: [7762]
ABUNDANT: [5329, 4852, 9589, 14311, 5561, 5914, 12157, 5903, 6799]
ACASTUS: [8176]
ACCEPT: [12004]
ACCEPTABLE: [9732, 2296, 7689, 9721, 2030]
ACCEPTED: [12255]
ACCEPTING: [10853]
ACCOMPANIED: [4043, 9724]
ACCOMPLISH: [848, 774, 2534, 823, 11959, 1516, 4014, 4814]
ACCOMPLISHED: [9489, 11153, 245, 13910, 9047, 11527, 13159, 1352, 6360, 11752, 1113, 2393, 7994, 9850, 11322, 747, 9931, 3948, 10524, 11596, 8621, 2926, 1295, 6383, 11327]
ACCOMPLISHING: [1028, 853, 7382]
ACCORD: [12789, 5833, 5500]
ACCORDING: [10704, 193, 8242, 8547, 1013, 5862, 6999, 8007, 4456, 6601, 7497, 2186, 7580, 4654, 14351]
ACCOSTED: [1430]
ACCOSTING: [570]
ACCURSED: [10240, 1731, 6490, 10010, 6653, 5198, 13854]
ACHAEAN: [13392, 4241, 290, 8210, 13779, 324, 628, 644, 12580, 11589, 11142, 6567, 12295, 6216, 12360, 12472, 1337, 7577, 13899, 668]
ACHAEANS: [384, 880, 1200, 1248, 8080, 10768, 10784, 12752, 113, 1137, 1745, 4593, 9377, 10401, 10721, 10737, 11889, 13569, 13825, 834, 1266, 1922, 1954, 8066, 8594, 11250, 339, 467, 1203, 1267, 1507, 2019, 10499, 10659, 10675, 10771, 11843, 13843, 660, 1284, 2004, 4740, 7652, 9236, 11668, 11860, 12004, 13812, 13908, 677, 773, 1909, 4565, 6229, 6565, 11205, 534, 2982, 4966, 6966, 9174, 11574, 13718, 535, 631, 663, 759, 1159, 1287, 2199, 7655, 9527, 1176, 1192, 2616, 10168, 10296, 5369, 9817, 13801, 1914, 459, 1211, 2187, 6603, 8363, 10539, 11867, 10172, 11180, 11580, 12012, 12684, 14252, 653, 765, 1165, 1789, 4077, 8077, 12557, 12813, 13789, 6606, 6654, 13774, 14238, 607, 1199, 1951, 8751, 11151, 12671, 13807]
ACHAIA: [1324]
ACHERON: [5955]
ACHIEVE: [9187, 9524]
ACHIEVES: [4157]
ACHIEVING: [1338]
ACHILLES: [6656, 13760, 1170, 6643, 1252, 6564, 13764, 13829, 6552, 6569, 13833, 4074, 13787, 13852, 1629, 6574, 1167]
ACORNS: [7762, 5628]
ACQUAINTANCE: [12206]
ACRONEUS: [4114]
ACROSS: [832, 8608, 1236, 709, 13877, 5543, 4856, 6873, 5531, 1775, 5951]
ACT: [6720]
ACTOR: [13576]
ACTS: [7908, 440, 696]
AD: [1770]
ADD: [12772]
ADDED: [13536, 8977, 7218, 2884, 11269, 10008]
ADDRESSED: [14192, 10856]
ADMONITIONS: [10420]
ADO: [913, 7610, 2396]
ADORNED: [2577, 2471]
ADRASTE: [1765]
ADULTERER: [4369]
ADVENTURE: [12881, 5348, 6998, 1128, 9160, 13193, 5051, 13277, 4958, 3647]
ADVENTURED: [1746, 4598]
ADVENTURES: [9745, 1906, 3987, 12196, 7637, 11495, 1817, 1339, 13310, 6735, 8991]
ADVERB: [9947]
ADVISE: [5571, 9363, 725, 9383, 248, 8793, 13449, 9995, 7724, 7709]
ADVISED: [1189, 5160]
ADVISETH: [9]
ADZE: [2899, 13539, 5126]
AEA: [5350]
AEACUS: [6634, 6555]
AEAEAN: [6768, 5508, 6109]
AEETES: [5510, 6840]
AEGAE: [3066]
AEGIS: [3328, 2513, 9458, 1091, 2501, 7717, 14374, 2744, 4984, 8713, 13065, 2778, 4842, 13931, 7581, 14398, 1487, 3567]
AEGISTHUS: [1347, 2243, 6467, 52, 1380, 2228, 1333, 13767, 6488, 1257, 1322, 1386, 2234, 1307, 1260, 1388, 2220, 45, 61, 13854, 351, 2255]
AEGYPTUS: [2033, 2177, 548, 2182, 2295, 10184, 2028, 8094, 8094, 543]
AEOLIAN: [5415, 5354]
AEOLUS: [5344, 5392, 5347, 6293, 13672, 5401, 5354, 5422]
AESON: [6316]
AETHIOPIANS: [1723]
AETHON: [11189]
AETOLIAN: [8220]
AFAR: [4881, 10130, 11314, 307, 8403, 1748, 2948, 10020, 4805, 11173, 2694, 7510, 10998, 1303, 4983, 7976, 8632, 11368, 777, 4313, 6521, 7961, 8745, 9113, 7818, 14042, 12028, 2989, 7565, 11933, 334, 1134, 3614, 13886, 6911, 10799, 11391]
AFFLICTED: [7297, 3829, 1287, 2567, 12471, 3065, 11082, 8843, 9675, 4733, 5790]
AFFLICTION: [1665, 11938, 2883, 4467, 8147, 2004, 69, 1909, 3045, 1159, 4199, 7433, 234, 6218, 732, 3756, 10300, 13374, 13775]
AFFRIGHTED: [12608, 5601]
AFORETIME: [7701, 11671, 6472, 667, 2716, 1662]
AFRAID: [10522, 2589, 9470, 14143]
AFTER: [1424, 12912, 1489, 4225, 4641, 5281, 6673, 8625, 13713, 1922, 3298, 5010, 6434, 6626, 7602, 13762, 7843, 8211, 8755, 9795, 11523, 292, 2420, 2996, 3028, 4308, 5028, 6372, 7796, 8164, 12660, 13508, 13604, 13844, 821, 1141, 1573, 3061, 3333, 3749, 7173, 12421, 1190, 1382, 3142, 4070, 5558, 9110, 12486, 2119, 2903, 4487, 6663, 11783, 12199, 13431, 1560, 1720, 1896, 3752, 4520, 5256, 8168, 8248, 8280, 12760, 4425, 5257, 6377, 6713, 7433, 12201, 2858, 6554, 8314, 8586, 10938, 13914, 363, 731, 923, 4667, 6491, 9259, 14155, 2556, 2732, 3404, 3836, 5068, 13836, 4045, 10397, 11309, 12397, 14269, 1166, 1438, 2190, 2286, 3582, 4558, 6766, 7102, 12526, 15, 767, 1567, 1679, 5775, 6319, 7167, 8015, 8991, 9327, 9711]
AFTERTIME: [13122, 13781, 4665, 5277]
AFTERWARD: [2147, 9811, 8696, 3514, 6459, 2013]
AFTERWARDS: [9457, 6755, 5030, 9884, 4927]
AGAIN: [208, 1072, 2176, 2768, 5024, 5088, 5824, 6896, 10560, 14240, 3121, 4993, 7425, 7969, 10449, 12897, 13569, 1442, 3154, 5074, 5650, 7970, 12322, 803, 1523, 1875, 2259, 2579, 5027, 6051, 7251, 7475, 8195, 9331, 9635, 10323, 1300, 1924, 3108, 6100, 6708, 7700, 9140, 10612, 2421, 5813, 6197, 6741, 7509, 7589, 9621, 13045, 13749, 13989, 1926, 2182, 5654, 6006, 9110, 10406, 11414, 11702, 12902, 2647, 5031, 5063, 5143, 5815, 5895, 9335, 10055, 14215, 6616, 8936, 9288, 12728, 14264, 137, 2473, 5081, 7705, 10617, 12137, 13513, 1226, 1898, 2682, 2986, 3930, 5306, 6890, 7194, 8250, 10410, 14298, 4091, 8747, 9291, 10875, 11851, 13675, 14139, 3004, 4092, 4188, 6556, 7260, 7564, 8780, 1741, 3949, 5677, 6189, 7981, 12653, 12781, 13501, 910, 3918, 8494, 10766, 11550, 11598, 14206, 5263, 7983, 8927, 9711, 10591, 12751, 13423]
AGAINST: [1376, 3728, 4064, 9776, 14144, 657, 2033, 3089, 3937, 7569, 7681, 8081, 9169, 9585, 10401, 11697, 14001, 242, 642, 3090, 3890, 5458, 6626, 6642, 9922, 14322, 4947, 5203, 8115, 10019, 36, 100, 5140, 8068, 8564, 9364, 9972, 11140, 2373, 3125, 3813, 6149, 9205, 9237, 9269, 10469, 10549, 11125, 12885, 3110, 3366, 7718, 11670, 12966, 951, 1271, 2855, 2919, 3575, 5735, 8407, 10071, 584, 680, 3112, 5928, 7112, 7608, 10824, 11128, 14088, 2585, 3609, 3897, 4953, 6025, 6521, 11833, 13417, 13897, 13913, 14281, 1674, 3050, 5658, 9530, 11290, 12154, 4939, 6379, 9099, 9147, 11435, 12619, 12843, 1372, 2748, 3132, 6652, 12332, 12844, 1213, 2061, 3549, 3693, 4749, 6829, 10525, 10733, 12333, 12365, 14237, 4782, 6894, 7902, 9582, 12574, 12830, 13502, 159, 1199, 4303, 4543, 7551, 9599, 9695, 9775, 10063, 12367]
AGAMEMNON: [2224, 6465, 7889, 1218, 13954, 13860, 1205, 13765, 2231, 7735, 1321, 1306, 2298, 4970, 13882, 1227, 6219, 7947, 4076, 6476, 45, 1341, 1326, 2238, 8367]
AGE: [544, 10640, 11072, 11377, 8834, 3875, 13635, 9684, 6181, 8853, 6246, 14006, 4247, 264, 2776, 13640, 14024, 6585, 13561, 1450, 3227, 8715, 13867, 3692, 8844, 11388, 13340, 10877, 14189, 8654, 12958, 13694, 1871, 2879, 7359]
AGED: [3592, 14186, 13179, 14030]
AGELAUS: [12865, 12066, 12962, 12086, 12998, 12857, 13004, 13101]
AGO: [12434, 13346, 11939, 2424, 11417]
AGONY: [12800, 7039]
AGREE: [12256]
AGREES: [6678]
AH: [5200, 945, 2001, 10241, 12353, 13617, 13777, 10898, 1907, 6611, 1156, 1284, 8868, 12101, 9046, 11383, 11959, 8200, 13960, 3097, 7481, 9849, 10889, 3162, 8810, 6731, 7531, 14171, 6588, 3837, 5677, 6269, 10733, 10989, 9198, 11326, 12270, 3039]
AHEAD: [3080]
AIA: [7058, 4707, 7065]
AIAS: [6640, 13761, 1170, 2212, 6647, 2201, 6553, 6651]
AID: [10960, 14176, 10706, 9364, 11028, 9317, 9559, 4569, 6490, 750]
AIDED: [2157]
AILED: [5136]
AIM: [12674, 13028, 12220, 13948]
AIMED: [11482, 12714]
AIMING: [4240, 12260, 12840]
AIR: [6003, 11587, 2964, 1335, 3255, 8156, 2685, 6847]
AKIN: [7380]
ALBEIT: [11280, 4737, 6914, 5507, 7989, 7063, 10344, 4745, 7978, 923, 3915, 5339, 3836, 2205, 5869, 6157, 11373, 4366]
ALCANDRE: [1767]
ALCIMUS: [12989]
ALCINOUS: [3584, 3664, 3680, 4016, 4256, 4432, 4480, 6416, 7312, 3201, 3425, 3985, 4481, 7361, 3650, 7346, 3219, 3683, 4419, 6419, 7331, 3364, 3732, 3796, 3956, 4004, 4052, 4436, 7316, 7364, 3541, 3765, 4133, 4533, 4613, 6437, 7317, 3446, 3846, 3990, 4054, 4134, 6454, 7334, 3975, 4455, 3544, 3992, 4152, 4280, 4680, 3657, 4121, 3786, 3930, 3659, 3691, 4539, 3596, 7292, 7308, 3581, 3613, 3997, 6429, 3214, 3742, 3822, 3918, 4094, 4478, 4478, 7486, 3775, 4431]
ALCIPPE: [1765]
ALCMAEON: [8716]
ALCMENE: [6326, 668]
ALDER: [2901, 2699]
ALDERS: [9907]
ALECTOR: [1634]
ALIEN: [4960, 12096, 11937, 1130]
ALIGHTED: [7416]
ALIKE: [4625, 2532, 2679, 8376, 122, 7114, 4620, 4750]
ALIVE: [592, 6128, 11936, 10321, 6547, 8835, 1333, 1749, 6789, 10309, 11285, 14037, 2598, 9798, 10199, 12743, 2200, 7768, 3529, 682, 2602, 12539, 13164, 8109, 1438, 2255, 13375]
ALL: [272, 400, 416, 432, 1168, 1248, 1424, 1824, 1968, 2240, 2352, 2432, 3280, 3360, 3408, 3456, 3664, 3728, 4256, 4432, 4656, 4864, 5072, 5424, 5504, 5760, 5824, 6000, 6160, 6240, 6528, 6608, 6944, 7040, 7344, 7536, 7728, 7792, 7968, 8144, 8480, 8864, 9216, 9360, 9440, 9472, 9744, 10208, 10352, 10640, 10704, 10928, 11200, 11344, 11856, 12000, 12080, 12128, 12496, 12528, 12736, 12752, 13168, 13440, 13664, 13776, 14064, 14224, 97, 881, 977, 1393, 1905, 2321, 2577, 2657, 2705, 2769, 2817, 2961, 2961, 3329, 3505, 3841, 3905, 3985, 4033, 4049, 4305, 4401, 4625, 5025, 5057, 5345, 5617, 5649, 6113, 6289, 6513, 6881, 6993, 7233, 7393, 7633, 8033, 8161, 8273, 8433, 8609, 8801, 9105, 10193, 10257, 10657, 10721, 10737, 10945, 11089, 11345, 11393, 11537, 11585, 11937, 12065, 12321, 12449, 12513, 13009, 13233, 13265, 13265, 13345, 13505, 13537, 13585, 13601, 13697, 13953, 14049, 114, 210, 594, 706, 754, 834, 914, 1138, 1186, 1522, 1602, 1922, 1954, 2002, 2098, 2130, 2162, 2290, 2658, 3090, 3330, 3426, 3794, 3874, 4130, 4194, 4210, 4242, 4466, 4562, 4626, 4818, 5106, 5186, 5314, 5634, 6130, 6434, 6610, 6610, 6898, 7074, 7634, 8034, 8050, 8434, 9394, 9474, 9890, 10434, 11794, 12226, 12338, 12482, 12754, 12770, 12786, 13282, 13362, 13682, 13730, 13762, 13970, 14066, 14130, 35, 67, 659, 899, 979, 1075, 1203, 1859, 1939, 2019, 2307, 2355, 2995, 3315, 3315, 3715, 4275, 4451, 4835, 4899, 5027, 5427, 6035, 6403, 6547, 6803, 7347, 7491, 7811, 7875, 8083, 8627, 8803, 8947, 10659, 10803, 10883, 10915, 11107, 11347, 11459, 11571, 11571, 11763, 11795, 12723, 12755, 12771, 13587, 13619, 13779, 13939, 14019, 14051, 100, 564, 612, 740, 804, 1012, 1284, 1444, 1460, 1796, 1924, 2100, 2244, 2260, 2532, 2724, 2772, 3876, 3956, 4612, 4964, 5124, 5396, 5460, 5860, 5892, 6228, 6244, 6276, 6324, 6580, 6676, 6804, 7028, 7124, 7236, 7252, 7764, 8212, 8500, 8740, 9028, 9380, 9588, 9732, 9860, 9876, 9908, 10004, 10180, 10564, 10724, 10916, 11252, 11300, 11348, 11492, 13028, 13124, 13188, 13636, 14036, 14052, 14084, 14308, 14372, 101, 261, 325, 757, 773, 789, 821, 1029, 1157, 1253, 1317, 1413, 2021, 2069, 2133, 2197, 2325, 2469, 2485, 2661, 2709, 3061, 3365, 3477, 4133, 4517, 4565, 4949, 5173, 5349, 5637, 6277, 6341, 6501, 6501, 6917, 7125, 7141, 7301, 7381, 7525, 7637, 7829, 8069, 8725, 9253, 9509, 9541, 9685, 9701, 9845, 9861, 9957, 10085, 10133, 10165, 10277, 10565, 10645, 10837, 11061, 11109, 11125, 11477, 11637, 11765, 11797, 12245, 12789, 13077, 13237, 13429, 13541, 13669, 13733, 13877, 14021, 14213, 14229, 14325, 518, 790, 982, 1190, 1254, 1958, 2166, 2406, 2422, 2550, 2854, 3398, 4182, 4198, 4230, 4390, 4470, 4566, 4582, 4662, 4966, 5062, 5302, 5590, 5686, 6198, 6422, 6454, 6790, 6838, 7190, 7334, 7574, 7638, 8310, 8342, 8438, 8598, 8790, 9158, 9414, 9462, 9478, 9526, 9590, 9606, 9910, 10134, 10182, 10278, 11238, 11414, 11494, 11558, 11750, 12278, 12374, 12470, 12662, 12758, 12774, 13510, 13574, 13718, 13766, 14374, 87, 583, 1111, 1431, 1447, 1895, 2471, 3063, 3735, 4119, 4247, 4311, 4455, 4487, 4551, 4919, 5063, 5191, 5463, 5511, 5607, 5815, 6119, 6359, 6471, 6791, 6791, 6807, 6839, 6999, 7031, 7095, 7319, 7463, 7495, 7543, 7927, 7959, 8103, 8279, 8327, 8551, 8839, 8871, 8935, 9255, 9271, 9527, 9559, 9831, 10279, 10407, 10455, 10471, 10503, 11063, 11383, 11511, 11703, 11863, 11879, 12103, 12311, 12599, 12823, 13015, 13031, 13159, 13815, 13911, 14183, 14231, 14359, 632, 664, 1032, 1144, 1176, 2024, 2040, 2088, 2632, 3256, 3496, 4104, 4168, 4536, 4584, 4680, 4696, 5096, 5144, 5160, 5848, 5960, 6184, 6600, 6648, 7048, 7096, 7336, 7352, 7496, 7592, 8216, 8600, 9224, 9240, 9352, 9384, 9480, 9576, 9896, 9912, 10136, 10248, 10360, 10392, 10424, 10488, 10568, 10744, 10776, 10792, 10984, 11064, 11160, 11384, 11496, 11608, 12424, 12488, 12616, 13208, 13368, 13384, 297, 729, 857, 921, 953, 1177, 1353, 1449, 1481, 1865, 2185, 2553, 3017, 3097, 3385, 3705, 3817, 3833, 4457, 4649, 4761, 5369, 5593, 5705, 5833, 5849, 6425, 7465, 7513, 7593, 7833, 7993, 8441, 8601, 8777, 9209, 9529, 9721, 9817, 10137, 10281, 10457, 10697, 11257, 11321, 11561, 11721, 11849, 12185, 12249, 12297, 12313, 12345, 12393, 12585, 12857, 13017, 13369, 13449, 13801, 14009, 14041, 250, 330, 938, 1098, 1194, 1530, 1770, 1946, 2602, 2906, 2970, 3258, 3866, 4122, 4282, 4794, 4954, 5162, 5274, 5690, 5850, 6042, 6186, 6282, 6554, 6618, 6810, 6970, 6970, 7178, 7290, 7418, 7690, 7850, 7898, 8202, 8698, 8714, 9546, 9738, 10090, 10250, 11130, 11258, 11450, 11626, 11754, 11994, 12426, 12538, 12746, 13498, 13578, 13690, 13866, 14122, 14218, 27, 299, 363, 443, 795, 971, 1179, 1563, 1819, 2043, 2107, 2187, 2187, 2299, 2539, 2811, 3163, 3243, 3467, 4171, 4283, 4635, 4923, 5835, 5883, 5995, 6155, 6155, 6443, 6859, 7371, 7515, 7627, 7755, 7899, 8283, 8459, 8539, 8571, 8699, 9227, 9259, 9515, 9819, 10331, 10587, 10635, 10811, 10891, 11179, 11291, 11307, 11419, 11627, 11867, 11963, 12123, 12251, 12523, 12731, 12763, 13163, 13179, 13211, 13355, 13659, 13771, 13819, 13835, 13851, 13883, 13979, 14267, 14347, 92, 108, 204, 540, 620, 732, 908, 1084, 1308, 1740, 2140, 2188, 2396, 2636, 2668, 3276, 3340, 3404, 3596, 3692, 3708, 3788, 3868, 3916, 3932, 4124, 4236, 4332, 4380, 4380, 4492, 4620, 5276, 5324, 5356, 5388, 5500, 5580, 5612, 5660, 6044, 6124, 6444, 6540, 6956, 6972, 6988, 7084, 7276, 7612, 7644, 7772, 7788, 7868, 8124, 8636, 8972, 9644, 9804, 10172, 10428, 11612, 11708, 12940, 12972, 12972, 13004, 13020, 13884, 13932, 14108, 14252, 14380, 61, 621, 733, 1517, 1853, 1885, 2253, 2381, 2493, 2525, 2541, 2749, 2973, 3117, 3437, 3661, 3725, 3965, 4093, 4445, 4573, 5309, 5549, 5565, 5677, 5885, 6045, 6061, 6221, 6237, 6349, 6349, 6397, 6429, 6525, 6717, 7021, 7133, 7149, 7181, 7325, 7341, 7757, 7997, 8029, 8445, 8637, 8669, 8669, 8989, 8989, 9053, 10493, 10749, 11405, 11549, 11629, 11645, 11725, 12589, 12621, 12701, 12749, 13053, 13165, 13277, 13677, 13997, 14045, 14381, 62, 222, 318, 350, 510, 734, 862, 926, 1166, 1182, 1390, 1614, 1870, 1902, 1934, 2142, 2430, 2590, 2638, 2910, 2926, 3070, 3150, 3294, 3534, 4014, 4046, 4126, 4350, 4814, 4862, 4926, 4942, 5374, 6270, 7358, 7710, 7886, 8302, 9182, 9326, 9502, 9550, 9822, 10078, 10622, 10638, 10942, 11294, 11854, 12110, 12286, 12830, 12910, 13230, 13454, 13694, 14222, 79, 655, 1007, 1199, 1503, 1599, 1743, 1839, 1951, 2063, 2095, 2303, 2335, 2703, 2783, 2975, 3663, 3759, 4031, 4335, 4591, 5183, 5407, 5647, 5823, 5855, 6287, 6783, 6815, 7231, 7359, 7391, 7567, 7679, 8143, 8175, 8207, 8943, 8991, 9791, 10159, 10175, 10399, 10527, 10559, 10991, 11231, 11343, 11599, 11631, 11887, 12415, 13215, 13247, 13279, 13663, 13679, 14031, 14143, 14207]
ALLOW: [13449]
ALMS: [10480, 10280, 9929]
ALOEUS: [6372]
ALOFT: [12848, 4306, 9394, 10786, 6339, 11011, 11587, 11478, 9720, 11656, 14361, 7258, 13754, 13261, 5118, 11646, 14366, 13215]
ALONE: [1952, 4240, 4256, 4848, 4880, 6640, 13008, 2770, 4419, 6067, 8531, 9363, 100, 388, 1284, 3364, 6932, 9236, 9428, 11796, 4613, 4885, 13941, 1830, 3302, 4230, 8310, 10678, 295, 1495, 5463, 11655, 12423, 13511, 12344, 3817, 5321, 10649, 538, 8794, 13690, 2939, 3867, 6107, 604, 1916, 2044, 12604, 5677, 5933, 6605, 9437, 10381, 11389, 14269, 4094, 12750, 13998, 623, 5855, 5967]
ALONG: [2144, 5473, 8849, 3106, 3315, 12724, 6054, 2999, 3000, 12233, 3002, 3499, 6635, 7243, 8763, 9515, 236, 2685, 3325, 4125, 3310, 5134, 5183, 9903]
ALOOF: [10160, 9747, 11411, 13508, 9398, 13430, 12300]
ALOUD: [944, 9106, 12610, 13314, 3955, 5139, 11844, 12228, 12468, 1925, 6469, 14373, 1944, 9945, 13193, 9338, 9707, 5581, 5613, 5645, 13198, 4607, 5615, 5711, 7039]
ALPHEUS: [1604, 8639]
ALREADY: [12272, 6225, 13137, 14321, 4322, 9122, 12642, 1315, 2883, 8835, 11923, 996, 5796, 7300, 6229, 14213, 1926, 2599, 744, 856, 9640, 1417, 2313, 10345, 3242, 5386, 3755, 13003, 7964, 8126, 10414, 13710, 2383]
ALSO: [11888, 13888, 3297, 12035, 5717, 10629, 4822, 167, 1096, 3273, 12217, 3674, 4490, 11786, 1259, 13135]
ALTAR: [7506, 9909, 13110, 1528, 12489, 4410, 13162, 1051, 3390]
ALTARS: [9954, 1350]
ALWAY: [14196, 796, 2639]
ALWAYS: [1188, 7636, 3813, 10821, 10901, 7830, 9127, 12135, 2280, 7448, 3913, 6233, 410, 11114, 3275, 13563, 7676, 5598, 5630, 7454, 10478, 10639]
ALYBAS: [14084]
AM: [224, 9168, 9600, 11584, 11952, 369, 593, 3425, 4193, 7665, 9233, 14033, 370, 3138, 9842, 13122, 14354, 739, 803, 2163, 2819, 3043, 3395, 7523, 11523, 3348, 4196, 5284, 6420, 7636, 8740, 8948, 9668, 9684, 10500, 11124, 11172, 11396, 12884, 245, 3749, 3829, 6309, 6565, 7989, 8037, 10805, 12293, 12325, 12421, 12613, 14085, 262, 6262, 7526, 7638, 8198, 11174, 12422, 12470, 1783, 4695, 4695, 8919, 9447, 11623, 11719, 12615, 13447, 6568, 8296, 11112, 11384, 11720, 889, 2969, 4345, 7993, 8857, 9305, 11321, 13449, 14105, 266, 3866, 6586, 9306, 10202, 10650, 10746, 11082, 13514, 14106, 859, 1995, 4443, 5291, 9675, 11435, 13147, 1068, 2060, 3404, 3836, 4236, 10732, 237, 3453, 3613, 3853, 9405, 10397, 10445, 1150, 1438, 6190, 7662, 9358, 11054, 11598, 895, 3343, 8751, 9119, 9327]
AMAZE: [12592, 419]
AMAZED: [13363, 13859, 10104, 2362, 379, 10508, 13436, 9325]
AMAZEMENT: [1460, 5637, 9097, 12313, 13422, 1183, 14191, 14255]
AMBER: [8961, 10779, 1709]
AMBROSIA: [6833, 2856, 2138, 2730, 5086]
AMBUSH: [2083, 2134, 1944, 8056, 2074, 6619, 2236, 9629, 8334, 7599]
AMENDS: [4448, 4473, 12763]
AMID: [1920, 2560, 7200, 7188, 7110, 2584, 9978, 3356, 3357, 4222]
AMIDST: [7199]
AMISS: [4193]
AMNISUS: [11193]
AMONG: [288, 1584, 3760, 4096, 4432, 8208, 8800, 9072, 9552, 10176, 10464, 11104, 13088, 14256, 145, 913, 1633, 2145, 2465, 3473, 3905, 4017, 4321, 7297, 8753, 9537, 12289, 12337, 13969, 146, 2530, 2578, 7330, 8322, 8338, 8354, 8610, 8786, 9394, 9394, 9474, 10098, 10930, 11058, 11922, 11970, 12002, 12066, 12322, 12498, 13106, 13186, 13202, 35, 1123, 3763, 4195, 6931, 9187, 9203, 10483, 10819, 10899, 12099, 13459, 13891, 580, 1380, 1412, 1732, 5012, 5396, 5412, 6580, 7060, 9780, 9972, 10596, 2389, 3237, 3653, 3797, 4437, 6117, 6405, 6421, 11333, 13365, 2550, 3478, 7430, 12278, 119, 167, 279, 791, 2471, 2631, 3063, 4055, 4135, 4215, 4455, 4615, 5431, 7095, 8695, 9511, 12711, 264, 552, 952, 1224, 1448, 1624, 3656, 3848, 6584, 7304, 7320, 8072, 8248, 8952, 10232, 10424, 10920, 12392, 14232, 713, 1641, 2953, 3449, 4361, 8937, 9529, 10089, 10473, 11065, 11673, 11993, 12025, 12857, 1514, 2426, 4442, 5050, 6714, 9578, 10650, 10698, 43, 219, 427, 491, 715, 3243, 3323, 3387, 3515, 4187, 5275, 6011, 8123, 9499, 9547, 10107, 10843, 11467, 13851, 14235, 284, 380, 636, 1004, 1212, 2364, 4172, 4396, 4444, 7196, 8012, 8956, 9836, 10268, 11932, 12028, 12780, 13004, 14268, 1325, 1469, 3613, 4013, 4573, 6413, 6573, 9005, 9757, 10061, 10285, 10797, 12557, 13805, 142, 238, 350, 1150, 4862, 6414, 8046, 8126, 9438, 9486, 9982, 11182, 12094, 12350, 12702, 13022, 13390, 14270, 14318, 47, 223, 543, 1135, 4383, 5055, 7487, 8223, 10479, 10495, 11135, 12239]
AMONGST: [4720, 4675, 4676, 3814, 12712, 92]
AMPHIALUS: [4131, 4117]
AMPHIARAUS: [8723, 8712]
AMPHILOCHUS: [8717]
AMPHIMEDON: [13041, 13861, 12999, 13048, 13865, 13881]
AMPHINOMUS: [10944, 10929, 10930, 11970, 10420, 10581, 12805, 9496, 11976, 9546, 9562, 10906, 10572, 12812]
AMPHION: [6321, 6345]
AMPHITHEA: [11445]
AMPHITRITE: [6866, 3111, 1150, 6830]
AMPHITRYON: [6326, 6330]
AMPLE: [10021]
AMYTHAON: [6316]
AN: [2032, 3760, 8176, 10624, 10640, 11072, 11968, 12384, 13920, 113, 2241, 2897, 3873, 4945, 6193, 6721, 7873, 7985, 9521, 9825, 9873, 11425, 12033, 14385, 1186, 1474, 2642, 6098, 9602, 11666, 11762, 12018, 13250, 13362, 13970, 14178, 947, 3187, 7043, 10195, 10611, 11331, 13187, 13427, 164, 3028, 3940, 8932, 9684, 9732, 10068, 10100, 10596, 11364, 13924, 14068, 581, 725, 3285, 5493, 5509, 6853, 7317, 8741, 9621, 9909, 10021, 10453, 10485, 11333, 12853, 12885, 13589, 726, 2502, 3862, 5126, 7462, 8118, 8742, 12326, 13142, 1319, 3431, 6807, 7143, 7287, 8055, 8695, 11271, 12359, 8, 376, 1224, 3480, 3592, 3864, 6872, 7112, 7496, 8296, 8360, 12040, 12328, 345, 457, 2073, 4009, 7337, 7689, 7913, 8105, 9721, 12617, 13193, 13369, 13641, 13817, 234, 1866, 1914, 2378, 5066, 5258, 6490, 7274, 10522, 10554, 10858, 11370, 11370, 12058, 12490, 907, 1195, 2235, 3387, 4251, 8059, 9947, 11947, 12107, 844, 2748, 3532, 4732, 5372, 6892, 7948, 8220, 8236, 9404, 10044, 10300, 11836, 301, 365, 2973, 4173, 4669, 5197, 5373, 6461, 6589, 7245, 7789, 7821, 8605, 8845, 9581, 9901, 10749, 13853, 206, 734, 1070, 2270, 3406, 6414, 7166, 11054, 13198, 13390, 13982, 3551, 5263, 6591, 7327, 8271, 8751, 9551, 10079, 11359, 11935, 12159, 12927, 13887]
ANABESINEUS: [4116]
ANCHIALUS: [4115, 490, 223]
ANCHOR: [4824, 11208]
ANCHORAGE: [9000, 7401]
ANCHORS: [9001]
ANCIENT: [3760, 2113, 7489, 13313, 2050, 2482, 2083, 7396, 2149, 7685, 2070, 13814, 1847, 7495, 2024, 5272, 234, 2090, 2154, 2250, 11370, 2043, 4653, 2143, 9823, 13647]
AND: [16, 16, 64, 128, 176, 224, 240, 272, 320, 352, 448, 496, 544, 608, 656, 672, 688, 736, 752, 752, 832, 880, 880, 928, 944, 944, 1024, 1024, 1088, 1088, 1104, 1120, 1120, 1168, 1200, 1216, 1216, 1248, 1312, 1392, 1456, 1472, 1504, 1520, 1536, 1536, 1552, 1568, 1632, 1648, 1680, 1744, 1760, 1824, 1824, 1872, 1872, 1888, 1904, 1904, 1920, 2016, 2016, 2064, 2064, 2096, 2144, 2144, 2208, 2208, 2240, 2256, 2288, 2304, 2304, 2336, 2352, 2352, 2368, 2400, 2496, 2544, 2560, 2576, 2592, 2624, 2768, 2816, 2832, 2832, 2848, 2880, 2928, 2944, 2960, 3056, 3088, 3104, 3168, 3184, 3184, 3200, 3200, 3280, 3296, 3312, 3328, 3344, 3344, 3344, 3392, 3408, 3424, 3456, 3472, 3472, 3504, 3664, 3680, 3696, 3712, 3712, 3728, 3744, 3776, 3776, 3904, 3936, 4016, 4032, 4048, 4048, 4064, 4096, 4112, 4128, 4160, 4176, 4224, 4256, 4256, 4272, 4272, 4288, 4304, 4320, 4400, 4416, 4416, 4448, 4464, 4480, 4480, 4496, 4512, 4528, 4576, 4592, 4608, 4656, 4720, 4720, 4736, 4752, 4768, 4768, 4800, 4800, 4896, 4912, 4928, 4944, 4976, 5008, 5008, 5008, 5056, 5088, 5104, 5120, 5136, 5184, 5200, 5216, 5232, 5280, 5360, 5360, 5376, 5392, 5408, 5408, 5424, 5424, 5488, 5504, 5520, 5536, 5600, 5616, 5616, 5712, 5712, 5776, 5776, 5824, 5824, 5824, 5888, 5904, 5920, 5952, 6048, 6064, 6080, 6096, 6144, 6176, 6176, 6192, 6192, 6224, 6224, 6288, 6288, 6320, 6352, 6368, 6400, 6480, 6528, 6576, 6576, 6624, 6720, 6752, 6768, 6784, 6800, 6816, 6896, 6912, 6928, 6928, 6944, 6944, 6976, 7056, 7056, 7104, 7168, 7312, 7344, 7344, 7360, 7376, 7520, 7568, 7568, 7584, 7600, 7616, 7648, 7664, 7696, 7696, 7728, 7792, 7936, 7936, 8048, 8096, 8128, 8144, 8144, 8160, 8192, 8240, 8240, 8256, 8256, 8288, 8288, 8320, 8320, 8432, 8432, 8448, 8512, 8560, 8560, 8576, 8576, 8592, 8608, 8608, 8640, 8704, 8736, 8752, 8784, 8816, 8816, 8832, 8848, 8864, 8864, 8880, 8880, 8928, 8944, 8944, 8960, 8976, 9008, 9008, 9024, 9072, 9104, 9120, 9136, 9168, 9232, 9248, 9264, 9264, 9280, 9376, 9376, 9424, 9440, 9440, 9520, 9536, 9552, 9552, 9600, 9600, 9664, 9680, 9696, 9696, 9696, 9712, 9744, 9744, 9776, 9792, 9840, 9872, 9872, 9872, 9904, 9984, 9984, 10000, 10064, 10064, 10144, 10192, 10208, 10208, 10256, 10320, 10320, 10320, 10336, 10368, 10400, 10464, 10480, 10528, 10528, 10544, 10560, 10576, 10608, 10624, 10800, 10928, 10928, 10944, 10960, 10992, 11040, 11040, 11088, 11088, 11104, 11104, 11120, 11152, 11200, 11296, 11328, 11344, 11360, 11376, 11424, 11440, 11456, 11472, 11488, 11504, 11536, 11584, 11600, 11600, 11616, 11680, 11712, 11776, 11824, 11840, 11856, 11856, 11920, 11936, 12000, 12000, 12016, 12096, 12096, 12144, 12304, 12384, 12432, 12448, 12448, 12464, 12528, 12560, 12560, 12576, 12576, 12624, 12624, 12640, 12672, 12704, 12720, 12720, 12720, 12736, 12800, 12800, 12816, 12816, 12816, 12832, 12832, 12848, 12880, 12896, 12912, 12992, 13008, 13024, 13120, 13168, 13184, 13200, 13232, 13264, 13280, 13296, 13328, 13376, 13376, 13392, 13424, 13520, 13520, 13536, 13536, 13568, 13648, 13664, 13664, 13664, 13680, 13712, 13728, 13760, 13760, 13824, 13824, 13840, 13856, 13888, 13904, 13920, 13936, 13952, 13968, 13984, 14000, 14016, 14048, 14064, 14112, 14128, 14128, 14144, 14160, 14176, 14224, 14240, 14240, 14336, 14336, 17, 97, 113, 145, 145, 161, 161, 177, 177, 209, 225, 241, 337, 337, 353, 385, 433, 513, 513, 529, 561, 609, 625, 657, 705, 705, 721, 737, 753, 865, 881, 961, 977, 993, 1025, 1089, 1089, 1105, 1169, 1201, 1201, 1265, 1265, 1377, 1393, 1425, 1489, 1521, 1537, 1569, 1569, 1633, 1649, 1649, 1681, 1681, 1777, 1777, 1793, 1825, 1841, 1841, 1857, 1921, 1953, 1969, 1969, 2033, 2113, 2113, 2129, 2145, 2145, 2177, 2193, 2209, 2225, 2273, 2305, 2321, 2353, 2401, 2465, 2465, 2529, 2529, 2561, 2625, 2641, 2657, 2705, 2737, 2833, 2833, 2881, 2913, 2961, 2993, 2993, 3025, 3057, 3073, 3105, 3169, 3169, 3185, 3233, 3297, 3313, 3329, 3409, 3409, 3425, 3425, 3473, 3521, 3537, 3553, 3649, 3665, 3697, 3713, 3713, 3729, 3761, 3777, 3793, 3841, 3841, 3985, 3985, 4001, 4017, 4033, 4049, 4065, 4081, 4113, 4273, 4289, 4305, 4337, 4433, 4465, 4481, 4577, 4593, 4609, 4609, 4625, 4657, 4737, 4785, 4865, 4865, 4881, 4881, 4897, 4929, 4945, 4977, 4993, 5009, 5025, 5057, 5089, 5089, 5105, 5105, 5153, 5153, 5249, 5249, 5297, 5329, 5329, 5345, 5361, 5393, 5457, 5489, 5537, 5585, 5585, 5601, 5617, 5617, 5633, 5649, 5713, 5729, 5729, 5777, 5809, 5905, 5937, 5953, 6049, 6049, 6081, 6113, 6161, 6177, 6177, 6193, 6209, 6209, 6241, 6257, 6273, 6305, 6321, 6353, 6369, 6401, 6417, 6433, 6465, 6481, 6513, 6609, 6625, 6625, 6673, 6705, 6705, 6753, 6753, 6769, 6785, 6817, 6849, 6897, 6929, 6977, 7025, 7073, 7089, 7105, 7121, 7153, 7169, 7233, 7233, 7265, 7265, 7265, 7297, 7313, 7361, 7361, 7393, 7425, 7457, 7473, 7473, 7505, 7537, 7601, 7633, 7729, 7761, 7761, 7793, 7793, 7809, 7825, 7841, 7953, 7985, 8097, 8113, 8145, 8145, 8161, 8193, 8193, 8225, 8257, 8273, 8305, 8337, 8401, 8433, 8529, 8577, 8577, 8609, 8625, 8625, 8673, 8689, 8689, 8705, 8705, 8769, 8769, 8785, 8801, 8817, 8817, 8833, 8961, 8993, 8993, 9009, 9105, 9137, 9185, 9217, 9233, 9249, 9281, 9297, 9297, 9313, 9361, 9361, 9377, 9601, 9617, 9665, 9777, 9793, 9841, 9841, 9857, 9873, 9873, 9969, 10065, 10081, 10097, 10129, 10177, 10193, 10193, 10241, 10257, 10273, 10289, 10305, 10353, 10385, 10497, 10529, 10545, 10561, 10625, 10625, 10657, 10689, 10753, 10801, 10817, 10833, 10945, 10945, 11041, 11057, 11105, 11105, 11105, 11153, 11185, 11201, 11201, 11233, 11345, 11425, 11473, 11489, 11505, 11505, 11585, 11713, 11729, 11745, 11745, 11777, 11777, 11841, 11857, 11905, 11937, 11953, 12017, 12065, 12065, 12081, 12097, 12193, 12321, 12401, 12465, 12497, 12513, 12529, 12561, 12561, 12625, 12641, 12673, 12673, 12689, 12753, 12769, 12785, 12801, 12817, 12881, 12913, 12993, 13025, 13073, 13073, 13121, 13153, 13153, 13185, 13233, 13265, 13281, 13361, 13425, 13425, 13489, 13521, 13553, 13585, 13617, 13633, 13665, 13697, 13729, 13729, 13729, 13761, 13761, 13873, 13873, 13905, 13921, 13953, 13969, 13969, 14049, 14065, 14081, 14097, 14161, 14225, 14321, 14353, 14353, 14369, 14369, 14385, 18, 162, 210, 434, 514, 530, 594, 626, 690, 706, 722, 722, 770, 802, 898, 914, 978, 1026, 1042, 1074, 1122, 1138, 1154, 1170, 1170, 1186, 1218, 1250, 1266, 1362, 1378, 1394, 1426, 1426, 1474, 1506, 1522, 1554, 1554, 1602, 1602, 1650, 1666, 1682, 1714, 1746, 1762, 1778, 1794, 1794, 1826, 1874, 1890, 1922, 1938, 1954, 2018, 2018, 2082, 2098, 2114, 2130, 2146, 2210, 2210, 2226, 2242, 2306, 2338, 2370, 2386, 2386, 2402, 2450, 2498, 2562, 2626, 2674, 2706, 2754, 2802, 2850, 2898, 2914, 2930, 2962, 2962, 3010, 3010, 3026, 3058, 3090, 3122, 3122, 3154, 3186, 3218, 3234, 3314, 3330, 3346, 3362, 3426, 3458, 3506, 3538, 3730, 3746, 3762, 3794, 3810, 3826, 3858, 3874, 3874, 3890, 3906, 3906, 3954, 3970, 3986, 4050, 4050, 4066, 4114, 4114, 4130, 4226, 4226, 4338, 4386, 4386, 4498, 4498, 4498, 4514, 4594, 4594, 4610, 4642, 4658, 4770, 4786, 4834, 4898, 4930, 4946, 5010, 5026, 5106, 5106, 5122, 5122, 5154, 5202, 5218, 5218, 5234, 5330, 5346, 5362, 5410, 5474, 5522, 5538, 5586, 5666, 5714, 5762, 5762, 5778, 5794, 5810, 5906, 5922, 5938, 5970, 5986, 6018, 6018, 6034, 6066, 6082, 6082, 6098, 6130, 6242, 6258, 6322, 6370, 6386, 6530, 6658, 6722, 6738, 6738, 6770, 6786, 6786, 6786, 6802, 6802, 6818, 6834, 6850, 6850, 6898, 6962, 6978, 6978, 7058, 7106, 7170, 7202, 7234, 7250, 7298, 7378, 7458, 7474, 7538, 7538, 7570, 7634, 7682, 7714, 7762, 7794, 7858, 7858, 7938, 7954, 8082, 8082, 8114, 8114, 8130, 8146, 8162, 8162, 8210, 8258, 8290, 8306, 8450, 8530, 8530, 8546, 8626, 8722, 8770, 8802, 8818, 8818, 8882, 8882, 8898, 8898, 8914, 8962, 8962, 9106, 9106, 9122, 9154, 9170, 9186, 9234, 9250, 9266, 9346, 9362, 9378, 9394, 9394, 9426, 9426, 9490, 9506, 9506, 9522, 9538, 9586, 9618, 9618, 9618, 9634, 9650, 9730, 9730, 9810, 9874, 9906, 9906, 9922, 9970, 9986, 10082, 10082, 10098, 10178, 10194, 10194, 10258, 10290, 10482, 10658, 10674, 10690, 10706, 10706, 10754, 10786, 10834, 10882, 10930, 10946, 10978, 11010, 11010, 11042, 11058, 11074, 11074, 11106, 11106, 11122, 11154, 11186, 11202, 11266, 11282, 11330, 11346, 11394, 11410, 11490, 11506, 11522, 11570, 11586, 11586, 11634, 11682, 11698, 11746, 11778, 11794, 11810, 11874, 11922, 11970, 12018, 12050, 12066, 12082, 12098, 12114, 12130, 12178, 12178, 12226, 12274, 12274, 12274, 12354, 12370, 12370, 12386, 12450, 12466, 12482, 12514, 12530, 12594, 12610, 12658, 12658, 12674, 12706, 12722, 12738, 12802, 12834, 12866, 12898, 12914, 12914, 12930, 12962, 12978, 12978, 12994, 13042, 13074, 13122, 13154, 13170, 13170, 13218, 13538, 13554, 13554, 13586, 13602, 13650, 13698, 13778, 13826, 13826, 13842, 13858, 13890, 13922, 13954, 13986, 14002, 14050, 14050, 14050, 14098, 14178, 14194, 14226, 14290, 14370, 115, 147, 163, 227, 227, 291, 323, 355, 387, 483, 515, 515, 531, 547, 659, 691, 755, 835, 867, 867, 899, 915, 979, 1011, 1011, 1027, 1043, 1075, 1139, 1171, 1219, 1219, 1235, 1267, 1283, 1315, 1347, 1379, 1395, 1411, 1411, 1427, 1443, 1523, 1539, 1539, 1555, 1555, 1587, 1683, 1699, 1699, 1715, 1747, 1747, 1795, 1827, 1875, 1875, 1891, 1971, 2003, 2019, 2035, 2147, 2227, 2227, 2259, 2259, 2275, 2291, 2291, 2323, 2371, 2387, 2499, 2563, 2579, 2595, 2611, 2675, 2723, 2755, 2771, 2803, 2819, 2835, 2851, 2883, 2899, 2915, 2931, 2931, 2963, 2963, 2963, 2979, 3011, 3043, 3059, 3107, 3123, 3155, 3171, 3251, 3299, 3299, 3347, 3363, 3379, 3379, 3395, 3395, 3411, 3411, 3443, 3459, 3491, 3491, 3523, 3571, 3587, 3603, 3619, 3651, 3779, 3779, 3795, 3843, 3875, 3891, 3907, 3923, 3923, 3939, 3955, 3955, 3987, 4019, 4019, 4067, 4067, 4099, 4115, 4115, 4115, 4115, 4115, 4131, 4163, 4179, 4211, 4211, 4227, 4243, 4275, 4355, 4419, 4451, 4451, 4515, 4515, 4579, 4579, 4595, 4595, 4627, 4643, 4659, 4659, 4659, 4707, 4755, 4771, 4787, 4787, 4819, 4835, 4867, 4867, 4867, 4883, 4931, 4963, 5011, 5043, 5107, 5123, 5139, 5155, 5187, 5187, 5187, 5203, 5203, 5235, 5283, 5315, 5363, 5411, 5459, 5523, 5539, 5539, 5555, 5587, 5603, 5619, 5635, 5699, 5715, 5715, 5747, 5779, 5811, 5827, 5875, 5939, 5971, 5987, 5987, 6019, 6035, 6067, 6083, 6115, 6163, 6179, 6227, 6227, 6259, 6275, 6307, 6307, 6355, 6403, 6403, 6419, 6467, 6467, 6643, 6659, 6691, 6691, 6723, 6723, 6723, 6723, 6739, 6755, 6787, 6803, 6803, 6883, 6915, 6915, 6947, 6979, 7011, 7043, 7091, 7091, 7123, 7139, 7155, 7155, 7187, 7235, 7267, 7299, 7331, 7347, 7363, 7443, 7555, 7603, 7635, 7715, 7747, 7763, 7843, 7859, 7875, 7875, 7923, 7955, 7971, 7971, 8003, 8019, 8067, 8083, 8083, 8099, 8115, 8115, 8131, 8227, 8243, 8275, 8291, 8307, 8323, 8323, 8339, 8339, 8371, 8483, 8483, 8579, 8739, 8771, 8787, 8803, 8851, 8915, 8931, 8947, 9011, 9123, 9171, 9203, 9267, 9267, 9331, 9331, 9347, 9363, 9379, 9379, 9427, 9507, 9587, 9651, 9683, 9699, 9731, 9731, 9747, 9779, 9811, 9811, 9859, 9891, 9907, 9971, 9971, 9987, 10019, 10019, 10067, 10099, 10163, 10179, 10227, 10307, 10339, 10355, 10435, 10515, 10531, 10547, 10595, 10595, 10611, 10611, 10691, 10691, 10707, 10739, 10739, 10755, 10819, 10819, 10883, 10883, 10899, 10947, 10979, 10979, 11011, 11027, 11043, 11075, 11075, 11091, 11091, 11107, 11107, 11123, 11123, 11155, 11155, 11203, 11203, 11219, 11251, 11283, 11347, 11379, 11411, 11427, 11427, 11459, 11475, 11491, 11507, 11523, 11539, 11571, 11667, 11699, 11699, 11747, 11747, 11779, 11779, 11811, 11875, 11923, 11939, 12179, 12179, 12227, 12227, 12243, 12259, 12355, 12387, 12387, 12387, 12419, 12467, 12467, 12515, 12515, 12531, 12547, 12643, 12643, 12659, 12675, 12691, 12691, 12771, 12787, 12835, 12867, 12931, 12931, 13011, 13043, 13075, 13123, 13155, 13187, 13251, 13267, 13299, 13315, 13315, 13363, 13411, 13443, 13443, 13491, 13523, 13539, 13539, 13555, 13587, 13587, 13619, 13635, 13651, 13683, 13683, 13699, 13747, 13795, 13859, 13859, 13891, 13939, 14003, 14051, 14067, 14099, 14163, 14227, 14339, 14339, 14355, 14371, 14371, 14387, 84, 84, 116, 116, 116, 132, 180, 212, 244, 260, 308, 324, 340, 356, 356, 372, 404, 452, 468, 516, 532, 580, 660, 708, 708, 740, 756, 820, 900, 900, 948, 964, 980, 1012, 1044, 1108, 1140, 1172, 1220, 1236, 1252, 1316, 1348, 1380, 1428, 1460, 1460, 1508, 1524, 1540, 1556, 1652, 1684, 1732, 1764, 1860, 1876, 1908, 1924, 1940, 1988, 2052, 2068, 2100, 2132, 2132, 2148, 2164, 2260, 2260, 2292, 2324, 2388, 2420, 2436, 2484, 2484, 2500, 2516, 2548, 2596, 2692, 2708, 2804, 2804, 2804, 2836, 2852, 2868, 2868, 2884, 2916, 2916, 2932, 3012, 3060, 3060, 3076, 3092, 3092, 3108, 3156, 3188, 3204, 3236, 3284, 3364, 3412, 3412, 3444, 3460, 3476, 3492, 3540, 3556, 3636, 3684, 3700, 3716, 3780, 3908, 3972, 4004, 4036, 4052, 4052, 4100, 4116, 4116, 4116, 4132, 4132, 4148, 4148, 4196, 4196, 4212, 4276, 4276, 4276, 4292, 4292, 4340, 4436, 4436, 4452, 4500, 4532, 4596, 4644, 4724, 4740, 4740, 4756, 4772, 4820, 4836, 4852, 4948, 4948, 4964, 5028, 5028, 5044, 5060, 5124, 5156, 5188, 5236, 5236, 5252, 5284, 5300, 5332, 5364, 5380, 5396, 5412, 5508, 5524, 5540, 5540, 5556, 5588, 5604, 5620, 5620, 5636, 5684, 5684, 5716, 5732, 5764, 5780, 5828, 5828, 5892, 5940, 5940, 5956, 6004, 6036, 6036, 6228, 6276, 6292, 6308, 6308, 6308, 6356, 6372, 6468, 6484, 6484, 6500, 6500, 6628, 6644, 6660, 6724, 6772, 6804, 6820, 6836, 6900, 6948, 7076, 7172, 7220, 7220, 7236, 7268, 7284, 7316, 7316, 7348, 7380, 7380, 7428, 7524, 7524, 7524, 7556, 7572, 7572, 7588, 7604, 7620, 7620, 7636, 7716, 7732, 7764, 7764, 7780, 7796, 7844, 7908, 7940, 7940, 7972, 7988, 8004, 8068, 8084, 8100, 8100, 8116, 8116, 8116, 8196, 8276, 8308, 8308, 8356, 8372, 8372, 8468, 8532, 8548, 8580, 8580, 8644, 8644, 8660, 8692, 8836, 8868, 8964, 8980, 9028, 9028, 9060, 9140, 9140, 9172, 9268, 9412, 9428, 9460, 9492, 9508, 9540, 9588, 9604, 9620, 9636, 9684, 9700, 9716, 9812, 9828, 9844, 9860, 9876, 9892, 9908, 9924, 9940, 9956, 10052, 10068, 10084, 10164, 10180, 10180, 10196, 10196, 10308, 10324, 10340, 10340, 10388, 10404, 10404, 10468, 10500, 10516, 10532, 10532, 10548, 10548, 10564, 10580, 10612, 10692, 10724, 10756, 10788, 10788, 10868, 10964, 10964, 11060, 11060, 11092, 11092, 11108, 11236, 11252, 11252, 11268, 11268, 11316, 11348, 11380, 11380, 11412, 11444, 11444, 11460, 11476, 11476, 11492, 11524, 11572, 11588, 11588, 11604, 11620, 11668, 11748, 11748, 11924, 12180, 12212, 12228, 12228, 12228, 12292, 12292, 12372, 12388, 12404, 12452, 12484, 12548, 12628, 12676, 12836, 12836, 12852, 12932, 12932, 12948, 12996, 13028, 13028, 13044, 13044, 13076, 13076, 13092, 13108, 13124, 13140, 13188, 13188, 13188, 13300, 13316, 13332, 13428, 13428, 13460, 13476, 13476, 13492, 13492, 13508, 13540, 13540, 13588, 13588, 13652, 13652, 13668, 13732, 13732, 13732, 13748, 13764, 13780, 13796, 13796, 13812, 13908, 13924, 13924, 14004, 14052, 14100, 14164, 14228, 14292, 14308, 14324, 14340, 14340, 14372, 149, 181, 181, 213, 229, 277, 309, 309, 325, 421, 437, 517, 533, 549, 581, 597, 629, 661, 693, 709, 709, 773, 789, 805, 805, 901, 933, 965, 981, 1029, 1061, 1125, 1173, 1173, 1189, 1189, 1253, 1381, 1461, 1477, 1509, 1525, 1557, 1573, 1605, 1669, 1669, 1685, 1701, 1765, 1765, 1797, 1941, 1957, 1973, 2005, 2021, 2053, 2085, 2133, 2133, 2197, 2213, 2213, 2229, 2277, 2293, 2293, 2357, 2389, 2469, 2517, 2533, 2597, 2629, 2645, 2693, 2709, 2725, 2741, 2757, 2757, 2821, 2837, 2837, 2853, 2901, 2901, 2917, 2933, 2933, 2965, 2997, 2997, 3029, 3077, 3157, 3205, 3237, 3285, 3301, 3317, 3349, 3365, 3381, 3429, 3445, 3461, 3493, 3493, 3509, 3509, 3525, 3541, 3557, 3573, 3589, 3605, 3605, 3621, 3637, 3637, 3685, 3685, 3701, 3717, 3717, 3781, 3797, 3845, 3861, 3877, 3941, 4085, 4085, 4117, 4197, 4277, 4325, 4341, 4357, 4357, 4373, 4389, 4453, 4453, 4469, 4485, 4485, 4549, 4565, 4565, 4613, 4629, 4645, 4645, 4661, 4693, 4725, 4773, 4837, 4885, 4901, 4901, 4949, 4981, 4997, 4997, 5029, 5045, 5045, 5061, 5061, 5077, 5077, 5077, 5093, 5109, 5125, 5157, 5173, 5285, 5301, 5317, 5333, 5349, 5365, 5397, 5413, 5429, 5429, 5445, 5493, 5525, 5541, 5573, 5589, 5589, 5621, 5621, 5653, 5669, 5749, 5765, 5781, 5813, 5909, 5941, 5957, 5957, 5989, 5989, 6005, 6005, 6037, 6037, 6053, 6053, 6069, 6101, 6181, 6213, 6213, 6245, 6277, 6357, 6373, 6389, 6389, 6389, 6421, 6437, 6453, 6469, 6501, 6533, 6613, 6629, 6629, 6645, 6709, 6709, 6709, 6821, 6885, 6949, 6949, 6997, 6997, 7029, 7045, 7109, 7109, 7125, 7141, 7173, 7205, 7221, 7237, 7301, 7365, 7365, 7397, 7461, 7541, 7557, 7573, 7573, 7589, 7605, 7621, 7637, 7653, 7685, 7701, 7717, 7749, 7781, 7797, 7829, 7829, 7845, 7845, 7845, 7861, 7909, 7941, 7941, 7957, 8021, 8037, 8053, 8053, 8085, 8101, 8101, 8181, 8181, 8197, 8213, 8277, 8341, 8373, 8389, 8405, 8421, 8421, 8437, 8501, 8597, 8645, 8645, 8661, 8677, 8693, 8725, 8725, 8741, 8757, 8805, 8853, 8885, 8885, 8885, 8901, 8965, 8981, 8981, 9013, 9093, 9141, 9221, 9301, 9301, 9381, 9429, 9445, 9509, 9525, 9525, 9541, 9557, 9589, 9589, 9605, 9621, 9653, 9685, 9701, 9765, 9765, 9861, 9877, 9909, 9925, 9941, 9973, 10005, 10021, 10069, 10069, 10085, 10213, 10245, 10277, 10309, 10357, 10405, 10421, 10453, 10485, 10501, 10549, 10549, 10597, 10597, 10709, 10709, 10725, 10757, 10773, 10773, 10789, 10821, 10837, 10885, 10901, 10917, 11061, 11077, 11093, 11157, 11189, 11221, 11269, 11285, 11317, 11317, 11349, 11445, 11445, 11461, 11493, 11573, 11621, 11749, 11749, 11765, 11861, 11877, 11989, 11989, 12069, 12085, 12197, 12245, 12309, 12309, 12325, 12325, 12341, 12357, 12373, 12421, 12437, 12453, 12533, 12565, 12645, 12677, 12725, 12789, 12789, 12933, 12949, 12949, 13029, 13029, 13045, 13061, 13077, 13109, 13125, 13157, 13189, 13205, 13237, 13253, 13301, 13301, 13301, 13317, 13333, 13397, 13413, 13429, 13477, 13541, 13605, 13653, 13669, 13685, 13717, 13733, 13765, 13797, 13797, 13829, 13845, 13877, 13909, 13925, 13941, 13957, 13957, 13989, 14069, 14085, 14117, 14149, 14165, 14309, 14325, 14325, 14373, 14405, 54, 70, 118, 150, 150, 166, 182, 230, 294, 326, 342, 438, 518, 534, 566, 582, 598, 694, 710, 774, 806, 822, 838, 870, 886, 934, 950, 1014, 1030, 1078, 1078, 1094, 1110, 1110, 1158, 1206, 1238, 1238, 1238, 1254, 1318, 1350, 1366, 1414, 1430, 1462, 1462, 1494, 1510, 1510, 1510, 1510, 1542, 1558, 1574, 1574, 1590, 1590, 1686, 1686, 1686, 1718, 1734, 1750, 1766, 1894, 1910, 1942, 2022, 2054, 2102, 2102, 2118, 2150, 2246, 2246, 2342, 2390, 2406, 2406, 2422, 2486, 2486, 2502, 2534, 2550, 2582, 2598, 2614, 2630, 2630, 2646, 2694, 2758, 2774, 2774, 2822, 2838, 2854, 2902, 2918, 2934, 2950, 2950, 2966, 2982, 2998, 3030, 3094, 3094, 3126, 3142, 3158, 3174, 3190, 3222, 3238, 3302, 3334, 3366, 3366, 3382, 3494, 3526, 3590, 3622, 3638, 3654, 3670, 3670, 3702, 3702, 3718, 3734, 3750, 3750, 3782, 3782, 3846, 3846, 3894, 3910, 3926, 3942, 3958, 3990, 4054, 4070, 4102, 4150, 4150, 4166, 4166, 4262, 4294, 4310, 4326, 4406, 4470, 4486, 4486, 4502, 4550, 4598, 4614, 4614, 4662, 4726, 4726, 4742, 4758, 4774, 4870, 4870, 4902, 4950, 5030, 5046, 5046, 5062, 5078, 5094, 5126, 5174, 5174, 5270, 5286, 5334, 5366, 5366, 5478, 5494, 5494, 5526, 5526, 5542, 5574, 5590, 5606, 5606, 5622, 5654, 5686, 5702, 5734, 5750, 5766, 5782, 5782, 5814, 5814, 5830, 5878, 5878, 5894, 5910, 5926, 5974, 5990, 6022, 6038, 6038, 6070, 6070, 6102, 6246, 6406, 6406, 6486, 6582, 6662, 6710, 6726, 6838, 7014, 7110, 7142, 7174, 7190, 7238, 7254, 7286, 7382, 7398, 7414, 7446, 7478, 7494, 7542, 7542, 7542, 7558, 7574, 7622, 7622, 7638, 7654, 7686, 7830, 7846, 7862, 7862, 7910, 7910, 7926, 7926, 7958, 7958, 7958, 8022, 8038, 8038, 8054, 8070, 8086, 8102, 8134, 8150, 8182, 8246, 8278, 8278, 8342, 8390, 8406, 8406, 8422, 8438, 8486, 8534, 8550, 8566, 8630, 8646, 8678, 8694, 8710, 8710, 8774, 8790, 8806, 8806, 8822, 8822, 8854, 8870, 8886, 8950, 8966, 8982, 8982, 9046, 9126, 9142, 9142, 9222, 9270, 9286, 9318, 9414, 9414, 9430, 9430, 9478, 9558, 9574, 9574, 9574, 9606, 9654, 9670, 9766, 9782, 9814, 9846, 9926, 9942, 9974, 10006, 10118, 10150, 10166, 10166, 10198, 10310, 10326, 10326, 10342, 10358, 10406, 10406, 10454, 10454, 10518, 10518, 10550, 10598, 10614, 10646, 10790, 10886, 10934, 11062, 11078, 11110, 11126, 11126, 11158, 11190, 11190, 11206, 11238, 11238, 11254, 11286, 11318, 11334, 11398, 11414, 11446, 11494, 11510, 11558, 11638, 11670, 11734, 11798, 11910, 11926, 11942, 11990, 12054, 12086, 12102, 12102, 12102, 12278, 12310, 12374, 12374, 12390, 12406, 12438, 12470, 12502, 12598, 12614, 12662, 12710, 12742, 12742, 12774, 12790, 12790, 12806, 12822, 12838, 12870, 12966, 12982, 12998, 13030, 13030, 13046, 13062, 13126, 13142, 13158, 13222, 13238, 13254, 13270, 13286, 13286, 13302, 13302, 13302, 13414, 13478, 13478, 13494, 13494, 13590, 13654, 13670, 13686, 13686, 13734, 13750, 13814, 13830, 13910, 14006, 14022, 14038, 14086, 14102, 14118, 14134, 14134, 14182, 14278, 14310, 14358, 14374, 55, 87, 103, 135, 135, 151, 167, 183, 215, 295, 311, 343, 343, 375, 375, 391, 503, 503, 535, 551, 599, 775, 775, 791, 823, 839, 839, 919, 919, 919, 935, 935, 967, 967, 1015, 1015, 1031, 1079, 1095, 1175, 1191, 1239, 1255, 1303, 1335, 1351, 1351, 1367, 1383, 1415, 1431, 1447, 1479, 1511, 1511, 1527, 1527, 1543, 1559, 1575, 1591, 1671, 1703, 1735, 1751, 1815, 1815, 1879, 1911, 1927, 1991, 2087, 2151, 2151, 2167, 2167, 2183, 2231, 2295, 2311, 2327, 2327, 2343, 2391, 2407, 2407, 2423, 2439, 2487, 2583, 2599, 2615, 2695, 2695, 2759, 2775, 2775, 2791, 2823, 2887, 2887, 2919, 2999, 2999, 3079, 3111, 3159, 3159, 3239, 3255, 3271, 3399, 3415, 3447, 3447, 3463, 3511, 3511, 3527, 3559, 3559, 3591, 3655, 3703, 3735, 3751, 3751, 3783, 3799, 3815, 3831, 3847, 3943, 4007, 4023, 4023, 4055, 4087, 4119, 4167, 4295, 4327, 4343, 4423, 4423, 4439, 4471, 4503, 4503, 4535, 4663, 4679, 4711, 4759, 4759, 4775, 4791, 4871, 4903, 4919, 4935, 4935, 4951, 4951, 5015, 5015, 5047, 5047, 5095, 5143, 5207, 5239, 5303, 5319, 5335, 5351, 5351, 5367, 5415, 5479, 5479, 5511, 5527, 5543, 5559, 5607, 5655, 5687, 5767, 5783, 5815, 5815, 5815, 5863, 5959, 5959, 5975, 5991, 6007, 6071, 6087, 6103, 6119, 6135, 6135, 6151, 6231, 6247, 6247, 6295, 6311, 6327, 6343, 6359, 6375, 6455, 6551, 6615, 6647, 6695, 6695, 6727, 6743, 6791, 6823, 6823, 6855, 6919, 6935, 6951, 6983, 7047, 7079, 7111, 7127, 7239, 7287, 7303, 7319, 7335, 7335, 7351, 7367, 7367, 7383, 7447, 7495, 7575, 7623, 7639, 7671, 7687, 7703, 7719, 7751, 7863, 7879, 7895, 7911, 7959, 8071, 8071, 8087, 8103, 8135, 8151, 8183, 8231, 8247, 8263, 8279, 8311, 8327, 8343, 8343, 8359, 8375, 8391, 8407, 8455, 8455, 8471, 8487, 8503, 8535, 8551, 8567, 8583, 8647, 8663, 8679, 8679, 8711, 8743, 8743, 8759, 8823, 8855, 8855, 8871, 8887, 8903, 8903, 8919, 8935, 8951, 8967, 8983, 8999, 9063, 9079, 9127, 9159, 9175, 9207, 9223, 9287, 9287, 9351, 9399, 9415, 9431, 9543, 9591, 9591, 9623, 9623, 9687, 9703, 9703, 9719, 9719, 9767, 9767, 9799, 9815, 9831, 9943, 9975, 9975, 10039, 10103, 10103, 10151, 10167, 10231, 10327, 10327, 10343, 10391, 10407, 10439, 10455, 10471, 10503, 10663, 10663, 10663, 10711, 10711, 10775, 10807, 10871, 10887, 10887, 11015, 11015, 11047, 11127, 11159, 11175, 11335, 11351, 11399, 11447, 11463, 11479, 11495, 11495, 11527, 11543, 11559, 11575, 11591, 11703, 11719, 11783, 11815, 11831, 11831, 11847, 11911, 11991, 12103, 12135, 12135, 12215, 12263, 12311, 12343, 12359, 12391, 12423, 12439, 12439, 12487, 12503, 12519, 12535, 12647, 12663, 12711, 12743, 12759, 12791, 12823, 12839, 12839, 12855, 12871, 12935, 12951, 12983, 12999, 12999, 12999, 13015, 13047, 13063, 13111, 13143, 13191, 13223, 13239, 13271, 13271, 13303, 13351, 13351, 13399, 13415, 13415, 13431, 13447, 13463, 13479, 13495, 13543, 13575, 13575, 13591, 13671, 13751, 13767, 13799, 13815, 13831, 13831, 13911, 13943, 13943, 14007, 14039, 14039, 14071, 14103, 14103, 14119, 14151, 14183, 14199, 14231, 14247, 14263, 14311, 14311, 8, 40, 72, 136, 184, 200, 296, 328, 344, 392, 472, 536, 552, 568, 568, 632, 632, 712, 808, 840, 856, 872, 920, 952, 968, 1000, 1016, 1016, 1032, 1048, 1064, 1080, 1144, 1160, 1176, 1192, 1256, 1304, 1368, 1400, 1416, 1512, 1512, 1528, 1560, 1576, 1592, 1608, 1608, 1624, 1640, 1672, 1688, 1688, 1736, 1800, 1864, 1864, 1880, 1912, 1944, 1992, 2040, 2040, 2072, 2072, 2120, 2120, 2152, 2152, 2200, 2200, 2216, 2248, 2264, 2296, 2328, 2328, 2360, 2520, 2552, 2632, 2648, 2680, 2776, 2792, 2840, 2856, 2856, 2888, 2904, 2936, 3032, 3080, 3288, 3288, 3336, 3368, 3400, 3432, 3448, 3464, 3528, 3560, 3592, 3608, 3656, 3688, 3688, 3736, 3768, 3816, 3832, 3848, 3880, 3944, 3976, 3976, 3992, 4008, 4008, 4056, 4104, 4104, 4120, 4152, 4168, 4200, 4232, 4280, 4296, 4360, 4408, 4424, 4504, 4520, 4552, 4568, 4696, 4728, 4760, 4792, 4856, 4872, 4872, 4904, 4920, 4936, 4936, 4952, 5048, 5064, 5096, 5096, 5208, 5352, 5368, 5368, 5384, 5432, 5528, 5528, 5576, 5624, 5656, 5720, 5720, 5736, 5768, 5768, 5784, 5800, 5816, 5848, 5912, 5960, 5976, 6008, 6024, 6024, 6120, 6184, 6200, 6200, 6200, 6232, 6264, 6280, 6296, 6312, 6312, 6328, 6344, 6376, 6424, 6520, 6536, 6536, 6552, 6552, 6760, 6760, 6776, 6792, 6808, 6840, 6904, 7032, 7032, 7064, 7080, 7096, 7160, 7176, 7176, 7208, 7256, 7272, 7304, 7320, 7320, 7352, 7352, 7368, 7368, 7384, 7512, 7640, 7720, 7752, 7816, 7864, 7880, 7880, 7896, 7928, 7992, 7992, 8008, 8008, 8024, 8088, 8104, 8104, 8104, 8120, 8136, 8216, 8248, 8264, 8280, 8360, 8456, 8488, 8488, 8504, 8504, 8552, 8584, 8584, 8600, 8616, 8664, 8664, 8712, 8728, 8728, 8792, 8840, 8856, 8872, 8888, 8936, 9000, 9016, 9048, 9064, 9064, 9064, 9208, 9272, 9288, 9288, 9320, 9336, 9416, 9432, 9544, 9576, 9592, 9624, 9688, 9768, 9816, 9832, 9944, 9944, 9944, 9976, 9976, 10008, 10072, 10088, 10104, 10184, 10232, 10232, 10248, 10408, 10472, 10504, 10536, 10584, 10584, 10648, 10712, 10728, 10744, 10792, 10808, 10856, 10872, 10888, 11000, 11000, 11016, 11016, 11032, 11048, 11128, 11192, 11208, 11224, 11240, 11240, 11256, 11288, 11304, 11320, 11320, 11336, 11336, 11416, 11448, 11560, 11576, 11592, 11592, 11608, 11672, 11704, 11752, 11800, 11816, 11816, 11848, 11848, 11880, 11896, 11960, 11976, 12056, 12056, 12072, 12104, 12104, 12120, 12120, 12120, 12200, 12216, 12232, 12232, 12248, 12264, 12312, 12312, 12328, 12376, 12392, 12440, 12440, 12520, 12520, 12568, 12568, 12600, 12760, 12776, 12808, 12808, 12824, 12824, 12840, 12936, 12968, 13000, 13032, 13048, 13048, 13080, 13096, 13096, 13112, 13144, 13144, 13144, 13192, 13224, 13224, 13240, 13272, 13336, 13352, 13368, 13384, 13416, 13416, 13448, 13480, 13496, 13544, 13544, 13560, 13560, 13688, 13800, 13928, 14008, 14024, 14088, 14152, 14184, 14200, 14216, 14232, 14248, 14264, 14280, 14296, 14360, 14392, 41, 73, 121, 137, 249, 281, 329, 345, 361, 377, 377, 425, 457, 473, 489, 505, 633, 649, 665, 665, 825, 921, 1017, 1017, 1049, 1065, 1081, 1113, 1177, 1225, 1305, 1385, 1401, 1465, 1481, 1497, 1513, 1545, 1561, 1593, 1593, 1609, 1609, 1625, 1641, 1673, 1673, 1689, 1721, 1737, 1769, 1849, 1897, 1929, 1945, 1977, 1993, 2105, 2121, 2137, 2233, 2249, 2265, 2313, 2473, 2505, 2537, 2553, 2585, 2601, 2601, 2681, 2697, 2697, 2825, 2873, 2905, 2921, 2937, 3001, 3049, 3209, 3209, 3225, 3257, 3321, 3369, 3417, 3465, 3481, 3529, 3545, 3561, 3561, 3609, 3641, 3657, 3673, 3689, 3689, 3721, 3737, 3753, 3769, 3785, 3785, 3801, 3801, 3833, 3897, 3913, 3961, 4009, 4057, 4057, 4073, 4089, 4089, 4105, 4121, 4121, 4153, 4185, 4185, 4185, 4249, 4345, 4345, 4489, 4489, 4505, 4521, 4521, 4553, 4585, 4697, 4729, 4761, 4825, 4841, 4857, 4857, 4889, 4921, 4953, 4969, 5001, 5065, 5081, 5113, 5113, 5129, 5129, 5209, 5273, 5289, 5305, 5385, 5401, 5449, 5449, 5465, 5465, 5497, 5513, 5529, 5545, 5593, 5593, 5625, 5689, 5721, 5721, 5769, 5801, 5817, 5833, 5833, 5849, 5849, 5897, 5929, 5945, 5961, 5961, 5977, 5977, 6041, 6073, 6073, 6073, 6089, 6105, 6233, 6329, 6409, 6441, 6441, 6489, 6489, 6505, 6537, 6553, 6553, 6617, 6697, 6713, 6745, 6777, 6793, 6793, 6873, 6889, 6905, 6905, 6921, 6937, 6953, 6953, 6969, 6969, 7017, 7017, 7033, 7113, 7113, 7129, 7129, 7209, 7225, 7305, 7337, 7369, 7417, 7497, 7529, 7545, 7561, 7609, 7641, 7673, 7737, 7865, 7897, 7897, 7897, 7945, 7961, 7977, 8009, 8025, 8137, 8185, 8249, 8281, 8329, 8329, 8361, 8377, 8393, 8489, 8505, 8569, 8569, 8585, 8617, 8665, 8697, 8713, 8729, 8729, 8777, 8777, 8777, 8793, 8873, 8921, 8921, 8937, 8969, 8969, 9001, 9001, 9001, 9065, 9097, 9145, 9177, 9177, 9209, 9241, 9337, 9369, 9401, 9417, 9433, 9465, 9481, 9481, 9497, 9497, 9529, 9529, 9529, 9593, 9673, 9705, 9721, 9737, 9737, 9769, 9801, 9817, 9817, 9897, 9897, 9913, 10025, 10041, 10073, 10073, 10089, 10137, 10169, 10201, 10217, 10281, 10345, 10361, 10377, 10393, 10425, 10473, 10505, 10505, 10505, 10505, 10537, 10553, 10553, 10553, 10585, 10601, 10617, 10665, 10681, 10729, 10761, 10777, 10793, 10793, 10809, 10825, 10825, 10889, 10985, 11097, 11097, 11113, 11161, 11177, 11241, 11257, 11289, 11337, 11353, 11433, 11433, 11465, 11545, 11561, 11577, 11609, 11657, 11721, 11785, 11817, 11849, 11881, 11977, 12041, 12089, 12105, 12105, 12137, 12233, 12249, 12265, 12265, 12265, 12345, 12361, 12425, 12441, 12441, 12457, 12473, 12505, 12537, 12585, 12633, 12633, 12665, 12713, 12761, 12809, 12825, 12841, 12857, 12889, 12921, 12921, 12953, 12953, 12985, 13033, 13049, 13065, 13081, 13113, 13129, 13145, 13161, 13177, 13177, 13225, 13241, 13257, 13257, 13273, 13273, 13321, 13337, 13353, 13369, 13385, 13465, 13465, 13497, 13625, 13673, 13689, 13705, 13721, 13801, 13833, 13881, 13913, 13929, 13945, 13945, 13977, 14009, 14009, 14025, 14025, 14041, 14121, 14137, 14169, 14185, 14201, 14201, 14217, 14217, 14281, 14297, 14361, 122, 138, 138, 154, 186, 282, 298, 298, 346, 378, 426, 490, 506, 602, 650, 714, 730, 746, 762, 794, 874, 874, 890, 890, 986, 1002, 1050, 1082, 1082, 1146, 1226, 1290, 1354, 1370, 1402, 1418, 1482, 1498, 1530, 1546, 1562, 1642, 1674, 1722, 1754, 1770, 1818, 1834, 1834, 1850, 1866, 1898, 1930, 1946, 1978, 1994, 2042, 2058, 2074, 2106, 2106, 2138, 2170, 2186, 2218, 2282, 2314, 2314, 2362, 2394, 2522, 2538, 2666, 2698, 2730, 2746, 2906, 2922, 2938, 2954, 3002, 3018, 3034, 3066, 3082, 3098, 3130, 3146, 3146, 3210, 3226, 3290, 3290, 3306, 3322, 3354, 3370, 3386, 3418, 3466, 3498, 3514, 3562, 3802, 3834, 3882, 3898, 3914, 3914, 3930, 3930, 4042, 4042, 4090, 4122, 4154, 4170, 4170, 4186, 4234, 4266, 4266, 4362, 4410, 4442, 4458, 4522, 4602, 4618, 4634, 4634, 4634, 4762, 4810, 4810, 4826, 4858, 4858, 4858, 4890, 4922, 4938, 4970, 5002, 5034, 5050, 5098, 5114, 5130, 5162, 5162, 5194, 5210, 5290, 5290, 5306, 5322, 5370, 5386, 5418, 5418, 5466, 5514, 5514, 5546, 5562, 5562, 5626, 5626, 5786, 5802, 5850, 5914, 5930, 5962, 5978, 6042, 6058, 6074, 6074, 6106, 6138, 6138, 6154, 6186, 6282, 6298, 6314, 6314, 6346, 6378, 6474, 6506, 6586, 6634, 6682, 6698, 6698, 6698, 6762, 6874, 6922, 6922, 6922, 6938, 6986, 6986, 7002, 7002, 7114, 7178, 7194, 7210, 7210, 7226, 7258, 7290, 7290, 7338, 7354, 7402, 7402, 7418, 7450, 7466, 7498, 7514, 7610, 7626, 7690, 7706, 7738, 7754, 7770, 7818, 7818, 7834, 7866, 7866, 7882, 7898, 7898, 7962, 8058, 8090, 8090, 8106, 8106, 8138, 8154, 8186, 8202, 8218, 8234, 8250, 8250, 8282, 8282, 8282, 8330, 8394, 8394, 8538, 8538, 8570, 8570, 8586, 8602, 8602, 8634, 8634, 8666, 8666, 8762, 8794, 8842, 8874, 8890, 8922, 8970, 9002, 9066, 9082, 9098, 9114, 9130, 9146, 9178, 9178, 9226, 9226, 9226, 9258, 9274, 9338, 9498, 9546, 9562, 9578, 9642, 9642, 9674, 9706, 9706, 9706, 9738, 9770, 9914, 9914, 9930, 9978, 10058, 10074, 10138, 10186, 10186, 10218, 10250, 10282, 10298, 10346, 10410, 10490, 10506, 10506, 10522, 10522, 10554, 10570, 10586, 10586, 10666, 10682, 10698, 10714, 10730, 10762, 10794, 10794, 10810, 10858, 10874, 11002, 11002, 11018, 11018, 11034, 11034, 11050, 11178, 11178, 11210, 11338, 11338, 11386, 11402, 11418, 11450, 11450, 11482, 11578, 11626, 11626, 11642, 11674, 11674, 11690, 11738, 11754, 11770, 11818, 11834, 11850, 11850, 11882, 11914, 11930, 11978, 11978, 11994, 11994, 12026, 12042, 12154, 12170, 12202, 12234, 12250, 12346, 12346, 12346, 12362, 12410, 12458, 12490, 12490, 12506, 12538, 12586, 12650, 12666, 12714, 12746, 12762, 12762, 12794, 12810, 12810, 12890, 12938, 12954, 12986, 13002, 13018, 13018, 13050, 13066, 13082, 13082, 13178, 13194, 13194, 13210, 13242, 13242, 13290, 13322, 13338, 13402, 13482, 13482, 13498, 13546, 13594, 13690, 13786, 13802, 13866, 13914, 13946, 14010, 14090, 14122, 14138, 14218, 14234, 14250, 14314, 11, 11, 75, 75, 123, 171, 187, 235, 299, 331, 363, 379, 379, 411, 443, 443, 507, 539, 587, 603, 619, 635, 699, 715, 779, 811, 875, 875, 875, 907, 923, 923, 955, 987, 987, 1003, 1067, 1099, 1211, 1307, 1403, 1435, 1531, 1563, 1579, 1595, 1611, 1627, 1675, 1675, 1691, 1723, 1723, 1723, 1755, 1803, 1835, 1915, 1947, 1947, 1979, 1979, 2011, 2059, 2075, 2075, 2107, 2107, 2139, 2155, 2203, 2235, 2299, 2443, 2443, 2459, 2459, 2507, 2507, 2539, 2651, 2651, 2699, 2699, 2731, 2747, 2779, 2811, 2811, 2843, 2859, 2859, 2875, 2875, 2907, 2907, 2923, 2923, 2923, 2939, 2987, 2987, 3003, 3019, 3035, 3051, 3051, 3083, 3115, 3131, 3147, 3211, 3211, 3275, 3307, 3323, 3339, 3371, 3419, 3419, 3435, 3451, 3467, 3483, 3499, 3515, 3563, 3595, 3643, 3659, 3723, 3803, 3819, 3851, 3883, 3883, 3899, 3963, 3963, 3995, 4011, 4091, 4107, 4107, 4107, 4155, 4187, 4203, 4235, 4411, 4443, 4459, 4475, 4507, 4523, 4539, 4539, 4555, 4555, 4587, 4603, 4619, 4651, 4699, 4731, 4731, 4763, 4795, 4795, 4859, 4875, 4891, 4955, 4955, 5003, 5051, 5115, 5147, 5147, 5163, 5195, 5211, 5227, 5275, 5307, 5307, 5371, 5403, 5483, 5499, 5531, 5611, 5643, 5675, 5675, 5755, 5771, 5851, 5883, 5883, 5915, 5963, 6043, 6043, 6043, 6059, 6091, 6091, 6139, 6155, 6171, 6203, 6283, 6283, 6315, 6347, 6395, 6395, 6395, 6443, 6475, 6491, 6523, 6539, 6555, 6619, 6619, 6683, 6683, 6699, 6715, 6747, 6763, 6779, 6811, 6827, 6859, 6875, 6891, 6907, 6923, 6955, 6955, 6971, 6987, 7003, 7051, 7051, 7131, 7163, 7179, 7195, 7211, 7227, 7243, 7259, 7259, 7275, 7355, 7371, 7387, 7419, 7435, 7547, 7579, 7595, 7643, 7787, 7851, 7851, 7899, 7931, 7931, 7963, 8075, 8091, 8123, 8139, 8155, 8155, 8171, 8283, 8283, 8315, 8347, 8395, 8427, 8427, 8443, 8459, 8507, 8507, 8539, 8571, 8571, 8619, 8619, 8683, 8763, 8779, 8827, 8843, 8859, 8859, 8875, 8891, 8939, 8971, 8971, 9003, 9035, 9035, 9067, 9083, 9099, 9099, 9131, 9147, 9163, 9179, 9227, 9275, 9307, 9307, 9355, 9371, 9387, 9387, 9483, 9483, 9499, 9547, 9563, 9643, 9643, 9707, 9707, 9739, 9771, 9835, 9835, 9851, 9883, 9899, 9899, 9915, 9915, 9979, 10027, 10059, 10235, 10251, 10315, 10363, 10379, 10411, 10411, 10443, 10475, 10475, 10571, 10603, 10635, 10683, 10731, 10747, 10779, 10859, 10907, 10907, 10923, 10955, 11003, 11003, 11035, 11147, 11179, 11195, 11211, 11211, 11227, 11243, 11275, 11307, 11323, 11355, 11371, 11451, 11451, 11467, 11547, 11627, 11675, 11739, 11819, 11835, 11851, 11979, 11979, 11979, 12043, 12107, 12107, 12203, 12219, 12251, 12267, 12267, 12283, 12315, 12315, 12347, 12379, 12411, 12523, 12571, 12587, 12587, 12667, 12699, 12715, 12763, 12779, 12779, 12859, 12875, 12875, 12987, 12987, 13003, 13067, 13147, 13163, 13211, 13227, 13323, 13323, 13371, 13371, 13403, 13419, 13499, 13531, 13531, 13595, 13627, 13675, 13691, 13691, 13707, 13755, 13819, 13867, 13915, 13979, 14011, 14011, 14027, 14043, 14091, 14107, 14139, 14187, 14267, 14331, 14347, 28, 28, 44, 60, 124, 172, 188, 252, 284, 300, 396, 460, 476, 540, 572, 604, 620, 620, 636, 668, 668, 796, 844, 860, 876, 924, 940, 972, 972, 988, 1052, 1084, 1084, 1132, 1180, 1244, 1388, 1388, 1484, 1548, 1548, 1564, 1580, 1580, 1596, 1612, 1708, 1724, 1724, 1724, 1740, 1756, 1772, 1900, 1916, 1948, 1980, 2012, 2012, 2092, 2092, 2124, 2172, 2188, 2204, 2236, 2268, 2268, 2284, 2300, 2348, 2380, 2444, 2444, 2540, 2540, 2556, 2588, 2588, 2636, 2668, 2684, 2700, 2700, 2716, 2716, 2732, 2748, 2812, 2876, 2892, 2892, 2972, 2988, 2988, 3020, 3052, 3052, 3084, 3100, 3148, 3148, 3164, 3180, 3180, 3212, 3260, 3356, 3372, 3404, 3420, 3500, 3516, 3532, 3564, 3644, 3660, 3692, 3692, 3708, 3772, 3788, 3804, 3868, 3884, 3884, 3900, 3948, 3964, 4012, 4012, 4028, 4044, 4044, 4060, 4108, 4124, 4204, 4220, 4284, 4284, 4300, 4300, 4316, 4316, 4332, 4380, 4380, 4412, 4428, 4444, 4444, 4476, 4476, 4524, 4540, 4556, 4556, 4604, 4668, 4684, 4700, 4700, 4780, 4796, 4828, 4876, 4876, 4908, 4924, 4940, 4972, 5004, 5052, 5068, 5164, 5212, 5308, 5324, 5324, 5356, 5356, 5420, 5452, 5500, 5516, 5580, 5596, 5628, 5628, 5644, 5644, 5692, 5756, 5788, 5836, 5868, 5884, 5884, 5948, 5964, 6044, 6060, 6060, 6076, 6140, 6220, 6236, 6252, 6252, 6284, 6284, 6300, 6300, 6300, 6316, 6316, 6332, 6348, 6348, 6348, 6364, 6428, 6444, 6492, 6508, 6556, 6572, 6588, 6604, 6620, 6684, 6716, 6780, 6780, 6860, 6860, 6908, 6924, 6940, 6972, 6988, 7020, 7036, 7068, 7116, 7148, 7196, 7212, 7244, 7260, 7260, 7292, 7308, 7324, 7340, 7340, 7372, 7372, 7404, 7404, 7404, 7420, 7516, 7532, 7580, 7596, 7612, 7660, 7676, 7676, 7756, 7756, 7788, 7804, 7820, 7852, 7868, 7900, 7916, 7932, 7948, 7964, 7996, 8012, 8028, 8044, 8044, 8092, 8092, 8108, 8140, 8156, 8188, 8204, 8252, 8268, 8300, 8316, 8348, 8364, 8444, 8540, 8604, 8620, 8652, 8716, 8716, 8764, 8796, 8940, 8956, 8972, 8972, 9004, 9036, 9068, 9084, 9100, 9100, 9244, 9276, 9276, 9292, 9356, 9356, 9388, 9404, 9404, 9436, 9452, 9516, 9548, 9564, 9580, 9580, 9596, 9660, 9692, 9756, 9772, 9804, 9820, 9884, 9900, 10028, 10060, 10092, 10188, 10204, 10348, 10348, 10364, 10476, 10508, 10524, 10540, 10572, 10572, 10588, 10636, 10652, 10668, 10684, 10828, 10844, 10860, 10876, 10908, 10924, 10956, 10972, 11004, 11020, 11052, 11068, 11100, 11100, 11116, 11132, 11148, 11180, 11196, 11228, 11244, 11260, 11340, 11420, 11436, 11452, 11484, 11500, 11612, 11692, 11692, 11724, 11756, 11788, 11820, 11820, 11820, 11836, 11852, 11900, 11948, 11980, 11996, 12012, 12028, 12060, 12076, 12124, 12140, 12156, 12172, 12204, 12204, 12220, 12332, 12332, 12380, 12396, 12428, 12460, 12540, 12556, 12572, 12604, 12636, 12700, 12716, 12716, 12748, 12780, 12796, 12828, 12828, 12860, 12876, 12892, 12892, 12956, 13004, 13068, 13116, 13132, 13132, 13164, 13180, 13212, 13228, 13228, 13244, 13244, 13244, 13260, 13260, 13276, 13276, 13388, 13436, 13452, 13452, 13500, 13548, 13596, 13612, 13612, 13644, 13740, 13756, 13788, 13820, 13884, 13884, 13932, 13948, 13980, 14060, 14060, 14124, 14124, 14172, 14172, 14188, 14252, 14332, 14332, 14380, 14396, 14396, 14396, 29, 125, 125, 141, 157, 157, 173, 173, 173, 237, 269, 333, 365, 397, 477, 525, 541, 557, 589, 589, 621, 653, 733, 749, 781, 813, 845, 861, 861, 925, 941, 973, 1021, 1021, 1053, 1053, 1117, 1229, 1261, 1325, 1325, 1373, 1421, 1565, 1597, 1693, 1693, 1709, 1709, 1709, 1741, 1757, 1773, 1821, 1869, 1885, 1885, 1901, 1917, 1933, 1949, 1965, 1981, 1981, 2013, 2077, 2109, 2141, 2237, 2269, 2285, 2333, 2349, 2397, 2413, 2445, 2493, 2509, 2509, 2541, 2589, 2637, 2669, 2701, 2717, 2733, 2749, 2765, 2797, 2813, 2893, 2909, 2941, 2989, 2989, 3037, 3053, 3069, 3101, 3117, 3149, 3213, 3261, 3293, 3309, 3341, 3341, 3405, 3405, 3421, 3469, 3485, 3485, 3485, 3501, 3517, 3533, 3549, 3549, 3597, 3645, 3677, 3677, 3677, 3693, 3709, 3821, 3837, 3885, 3901, 3933, 3933, 3949, 3949, 4013, 4013, 4029, 4061, 4093, 4109, 4109, 4125, 4157, 4173, 4221, 4237, 4269, 4285, 4317, 4317, 4333, 4349, 4397, 4429, 4429, 4445, 4493, 4525, 4589, 4605, 4621, 4653, 4669, 4685, 4685, 4797, 4829, 4845, 4845, 4877, 4893, 4909, 4973, 5005, 5037, 5053, 5085, 5101, 5117, 5133, 5229, 5229, 5309, 5421, 5421, 5437, 5469, 5485, 5565, 5597, 5613, 5629, 5645, 5645, 5693, 5693, 5709, 5773, 5789, 5869, 5885, 5885, 5901, 5949, 5949, 6045, 6061, 6093, 6173, 6205, 6269, 6301, 6381, 6397, 6605, 6717, 6797, 6829, 6845, 6861, 6893, 6893, 6941, 6941, 6957, 6957, 7005, 7005, 7037, 7053, 7085, 7101, 7117, 7165, 7181, 7213, 7213, 7229, 7277, 7277, 7341, 7405, 7437, 7437, 7517, 7517, 7549, 7581, 7661, 7693, 7709, 7757, 7773, 7789, 7805, 7821, 7821, 7837, 7853, 7901, 7917, 7997, 8013, 8045, 8093, 8141, 8157, 8189, 8189, 8221, 8221, 8237, 8269, 8285, 8301, 8301, 8317, 8333, 8445, 8461, 8509, 8509, 8525, 8573, 8589, 8621, 8637, 8637, 8669, 8701, 8717, 8733, 8733, 8749, 8749, 8765, 8797, 8813, 8909, 8909, 8941, 8957, 9037, 9085, 9101, 9181, 9181, 9181, 9213, 9229, 9229, 9245, 9293, 9357, 9357, 9373, 9437, 9469, 9485, 9533, 9533, 9613, 9693, 9773, 9773, 9805, 9821, 9869, 9869, 9869, 9901, 9933, 9981, 9997, 10045, 10077, 10077, 10157, 10221, 10221, 10317, 10317, 10333, 10381, 10397, 10413, 10413, 10445, 10477, 10493, 10525, 10573, 10573, 10605, 10637, 10637, 10653, 10669, 10733, 10749, 10781, 10781, 10813, 10829, 10861, 10861, 10877, 10877, 10909, 11005, 11069, 11181, 11181, 11197, 11197, 11245, 11389, 11469, 11485, 11501, 11501, 11549, 11597, 11629, 11677, 11677, 11725, 11741, 11773, 11805, 11837, 11885, 11901, 11981, 11981, 11997, 12077, 12221, 12301, 12317, 12333, 12365, 12381, 12381, 12397, 12429, 12429, 12445, 12461, 12461, 12493, 12509, 12573, 12573, 12605, 12621, 12621, 12653, 12685, 12701, 12717, 12749, 12765, 12765, 12797, 12877, 12877, 12909, 12925, 12957, 13117, 13117, 13197, 13213, 13229, 13229, 13245, 13245, 13277, 13293, 13405, 13405, 13533, 13565, 13581, 13629, 13661, 13661, 13677, 13693, 13693, 13725, 13725, 13741, 13757, 13757, 13773, 13789, 13805, 13821, 13837, 13869, 13869, 13885, 13933, 13981, 13981, 13997, 14013, 14029, 14045, 14077, 14093, 14109, 14125, 14157, 14157, 14205, 14205, 14253, 14269, 14333, 14333, 14365, 14381, 94, 190, 206, 302, 302, 382, 414, 430, 430, 462, 494, 510, 510, 526, 590, 590, 654, 686, 718, 718, 750, 782, 798, 830, 862, 862, 878, 910, 1022, 1038, 1054, 1086, 1086, 1102, 1118, 1134, 1166, 1198, 1230, 1230, 1262, 1278, 1294, 1422, 1422, 1438, 1470, 1486, 1502, 1502, 1534, 1534, 1566, 1598, 1598, 1614, 1630, 1630, 1758, 1758, 1774, 1822, 1854, 1902, 1918, 1950, 1966, 2030, 2078, 2094, 2110, 2110, 2142, 2158, 2222, 2318, 2350, 2446, 2494, 2494, 2510, 2542, 2606, 2606, 2670, 2670, 2702, 2718, 2734, 2798, 2814, 2814, 2878, 2878, 2894, 2910, 2910, 2926, 2942, 2974, 3022, 3054, 3070, 3086, 3086, 3102, 3134, 3150, 3150, 3198, 3214, 3246, 3246, 3246, 3326, 3374, 3438, 3438, 3486, 3486, 3502, 3534, 3550, 3630, 3662, 3678, 3694, 3710, 3726, 3742, 3806, 3838, 3838, 3854, 3870, 3886, 3902, 3918, 3918, 3934, 3950, 3966, 4014, 4030, 4046, 4126, 4142, 4142, 4158, 4238, 4270, 4270, 4286, 4318, 4334, 4350, 4446, 4462, 4478, 4526, 4606, 4606, 4686, 4686, 4702, 4718, 4734, 4750, 4750, 4782, 4782, 4830, 4846, 4862, 4878, 4878, 4894, 4926, 5006, 5054, 5070, 5086, 5134, 5166, 5166, 5230, 5230, 5278, 5294, 5310, 5326, 5358, 5374, 5406, 5422, 5422, 5502, 5518, 5518, 5534, 5646, 5646, 5678, 5742, 5790, 5806, 5822, 5822, 5838, 5854, 5886, 5886, 5966, 5966, 5982, 5982, 5998, 6014, 6062, 6078, 6110, 6158, 6206, 6238, 6238, 6286, 6334, 6334, 6366, 6430, 6430, 6446, 6526, 6590, 6654, 6670, 6718, 6734, 6846, 6894, 6910, 6958, 6958, 6990, 7038, 7070, 7070, 7086, 7102, 7118, 7134, 7150, 7198, 7230, 7246, 7262, 7326, 7342, 7390, 7438, 7438, 7454, 7486, 7486, 7518, 7518, 7550, 7550, 7582, 7630, 7726, 7742, 7758, 7790, 7790, 7854, 7902, 7966, 7982, 7998, 8014, 8030, 8046, 8062, 8062, 8062, 8078, 8094, 8142, 8142, 8190, 8222, 8286, 8334, 8334, 8334, 8350, 8350, 8382, 8462, 8478, 8510, 8558, 8574, 8590, 8606, 8606, 8638, 8654, 8670, 8686, 8686, 8734, 8750, 8766, 8798, 8830, 8846, 8846, 8942, 8942, 8942, 8974, 9038, 9038, 9054, 9086, 9086, 9134, 9150, 9230, 9294, 9294, 9310, 9342, 9374, 9470, 9486, 9534, 9550, 9550, 9646, 9646, 9726, 9726, 9742, 9742, 9758, 9790, 9886, 9902, 9950, 9982, 9998, 10014, 10046, 10062, 10078, 10158, 10174, 10190, 10190, 10190, 10222, 10302, 10334, 10398, 10414, 10430, 10462, 10478, 10494, 10526, 10542, 10542, 10558, 10574, 10590, 10702, 10878, 10878, 10894, 10942, 10974, 10974, 11038, 11054, 11070, 11134, 11134, 11182, 11182, 11214, 11294, 11374, 11422, 11438, 11454, 11486, 11502, 11518, 11534, 11534, 11566, 11566, 11582, 11614, 11630, 11678, 11694, 11694, 11694, 11694, 11726, 11742, 11774, 11790, 11838, 11918, 11950, 11982, 11998, 12062, 12110, 12174, 12190, 12238, 12286, 12302, 12318, 12366, 12366, 12398, 12430, 12446, 12446, 12494, 12510, 12526, 12574, 12686, 12702, 12750, 12750, 12798, 12814, 12846, 12878, 12910, 12974, 13070, 13070, 13102, 13102, 13118, 13118, 13134, 13134, 13150, 13198, 13246, 13262, 13294, 13294, 13310, 13310, 13374, 13422, 13422, 13438, 13502, 13534, 13566, 13582, 13630, 13646, 13662, 13678, 13710, 13742, 13742, 13822, 13854, 13886, 13934, 14030, 14078, 14094, 14110, 14126, 14158, 14190, 14206, 14270, 14302, 14366, 14366, 15, 143, 175, 175, 207, 223, 319, 383, 415, 415, 49
[...]
WITLESS: [851, 4982, 5159, 4232, 8328, 3018, 843, 7565, 10383]
WITLESSNESS: [14290, 9939]
WITNESS: [9841, 325, 2837, 9206, 11319, 7992, 6393, 4573, 9581, 12061, 11951]
WITNESSES: [8238]
WITS: [10705, 5010, 5090, 12290, 10820, 10900, 4630, 809, 12602, 5932, 8014, 5199, 12095]
WITTED: [2052, 9962, 12650]
WIVES: [4800, 1556, 8100, 2344, 1946, 6282, 7340, 6397, 10190, 4719]
WIZARD: [5510, 6390, 71]
WOE: [4080, 6994, 579, 7523, 11924, 12101, 11383, 1721, 3162, 2955, 1164, 7020, 8828, 719, 3039, 3343]
WOEFUL: [2403, 1796, 12618, 4623]
WOEFULLY: [9687, 763, 13339]
WOES: [17, 3827, 6451, 7859, 4692, 2632, 6458, 6443]
WOKE: [8466]
WOLDS: [5678]
WOLVES: [5600, 5861, 5593]
WOMAN: [1008, 6305, 11521, 13313, 514, 8931, 8979, 9267, 11379, 11699, 13507, 964, 1636, 8964, 1893, 12037, 13429, 6614, 7622, 6519, 7960, 8936, 11064, 12360, 13352, 681, 1785, 8441, 234, 11370, 4603, 6539, 11547, 14187, 1788, 3388, 3660, 5644, 6300, 6508, 7644, 8716, 10652, 11436, 11500, 2557, 5613, 6461, 8909, 11053, 8910, 11518, 13982, 8959, 11279, 11791]
WOMANKIND: [6513, 8913, 13505, 13970]
WOMEN: [400, 3264, 3920, 6464, 11344, 1217, 5761, 10833, 11361, 13265, 13873, 3810, 6482, 11538, 11794, 12594, 13282, 3651, 9571, 13219, 13299, 14051, 644, 1556, 2500, 10724, 12452, 12628, 12884, 13204, 14052, 421, 629, 1925, 2469, 7765, 11589, 11749, 13237, 9750, 10982, 11142, 11862, 13478, 13654, 11671, 13223, 13255, 13911, 664, 2872, 6280, 9720, 11048, 11656, 12472, 13336, 1337, 3673, 8505, 13209, 3850, 13242, 13482, 667, 2475, 3707, 6315, 13179, 13227, 13339, 13899, 11244, 12556, 13724, 9437, 12893, 2510, 8606, 9454, 10046, 11070, 13214, 511, 655, 767, 3695, 11039, 11391, 13295]
WON: [8211, 292, 13780, 13908, 6645, 8070, 1208, 13978, 8236, 11996, 3949, 2671, 7439, 13695]
WONDER: [4434, 2707, 3395, 2710, 1785, 4841, 3548, 4413, 6349, 1711]
WONDERED: [2709, 3735, 8572, 11245]
WONDERFUL: [13800]
WONDERS: [7211]
WONDROUS: [3744, 6449, 6657, 6722, 3635, 3891, 2740, 3972, 6518, 3015, 5175, 2312, 13752, 6937, 7113, 8841, 9738, 539, 1211, 4011, 6747, 252, 7708, 317, 4574, 6078]
WONDROUSLY: [10327, 5817]
WONT: [3696, 12944, 5473, 7490, 11602, 7939, 2724, 4516, 11668, 4647, 10423, 1848, 5192, 11672, 7193, 11017, 11033, 4283, 2428, 13980, 10061, 2574, 3598, 4942, 4879, 10143]
WOO: [10754, 6163, 9174, 9542, 12360, 58, 299, 7915, 9227, 7726]
WOOD: [8192, 13537, 2898, 5474, 11461, 3174, 7574, 2695, 4807, 5111, 10071, 2920, 3353, 4569, 6777, 2698, 4938, 9147, 10043, 5116, 1565, 3086, 3167, 3327, 4591, 5039]
WOODED: [7809, 13473, 4884, 229, 11126, 13719, 298, 9226, 4700]
WOODLAND: [5524, 4805, 70, 5576, 11465, 5532, 5708]
WOODS: [5762]
WOOED: [12743, 13886]
WOOER: [13040, 13019]
WOOERS: [144, 672, 800, 8016, 9184, 9760, 10096, 10464, 10960, 11136, 13920, 2657, 7905, 7937, 8449, 9361, 10545, 10561, 10753, 11537, 11697, 12129, 12449, 12657, 12721, 12945, 12961, 13025, 13377, 14177, 114, 146, 322, 658, 2418, 9282, 10098, 12242, 13106, 13858, 771, 835, 899, 2435, 2611, 7827, 8627, 10355, 10723, 11155, 11955, 13075, 13171, 13235, 13411, 13747, 14307, 180, 308, 628, 2020, 2388, 7748, 9572, 9972, 10628, 10708, 10788, 10964, 12148, 12276, 13716, 133, 165, 325, 389, 549, 805, 2517, 3525, 6165, 8453, 9509, 9845, 10053, 10085, 10261, 10421, 11029, 12293, 12405, 12501, 12773, 13349, 13893, 854, 1270, 2550, 8438, 9814, 10710, 11670, 12022, 12246, 12966, 12998, 583, 887, 9399, 9431, 9607, 10631, 10679, 11607, 11879, 11943, 12151, 12231, 12599, 13047, 968, 7720, 7784, 9912, 10136, 10392, 10840, 11528, 11672, 11896, 12264, 12616, 13032, 13128, 14264, 185, 425, 873, 2521, 9193, 9209, 9417, 10233, 10473, 10601, 12025, 12345, 12377, 12393, 12665, 12697, 12841, 13001, 13257, 13369, 10, 986, 7514, 7930, 9402, 9786, 11994, 13322, 347, 827, 1995, 2347, 2411, 7755, 9483, 9739, 9819, 10235, 10683, 12123, 12171, 12427, 12683, 12987, 13387, 13723, 380, 2524, 7836, 9116, 9372, 9452, 9644, 9756, 10508, 11628, 11676, 11804, 11852, 12076, 12236, 13036, 13084, 13356, 13660, 13740, 13948, 189, 429, 861, 7725, 8813, 9549, 9629, 9997, 10061, 10109, 10333, 11341, 11597, 11997, 12029, 12621, 12909, 13021, 13149, 13485, 14109, 142, 318, 382, 494, 638, 718, 814, 6350, 7806, 8798, 9022, 9694, 9742, 9966, 10078, 10622, 10846, 10910, 11710, 11966, 12094, 12350, 12702, 12878, 14142, 1279, 2015, 2351, 9567, 9855, 10159, 10607, 11599, 11663, 12031, 12239, 13471, 13935, 14223]
WOOES: [12080]
WOOEST: [9591]
WOOF: [13890, 5988, 5606, 635, 2893, 11134]
WOOING: [9427, 6164, 757, 2421, 759, 8439, 6344, 11128, 329, 3242, 3386, 75, 12027, 4350, 12558, 7727, 10975]
WOOL: [1776, 5187, 1766, 519, 13210, 5166]
WOOLS: [10802]
WOOS: [11574]
WORD: [1760, 8448, 9280, 9824, 12240, 13024, 689, 753, 1809, 6417, 14273, 786, 5634, 8242, 10290, 11282, 243, 2003, 3955, 6659, 7299, 7331, 12371, 13699, 13731, 1924, 2596, 2836, 6084, 6132, 6420, 7444, 11380, 11892, 12004, 12068, 12372, 13396, 85, 453, 1013, 1157, 1301, 4149, 9493, 9685, 9797, 10629, 10677, 10933, 12005, 13413, 13525, 198, 6662, 11798, 567, 4199, 4647, 6999, 9047, 9095, 9335, 10471, 11399, 13175, 3768, 4456, 8328, 8744, 9496, 10440, 11960, 12072, 12504, 793, 809, 2025, 6601, 7497, 11785, 12857, 554, 2186, 5002, 5370, 8330, 9850, 9930, 9962, 331, 747, 8619, 10251, 11691, 12091, 13259, 14011, 2652, 5980, 6604, 7580, 9948, 10380, 10636, 11532, 11804, 12860, 13004, 13084, 717, 845, 2205, 8861, 3374, 8670, 8846, 9310, 9870, 10158, 10942, 879, 959, 1295, 5615, 7583, 8383, 9167, 9263, 9839, 11327, 11599, 12255, 14351]
WORDS: [2000, 2592, 5856, 5920, 7552, 10128, 10896, 14192, 945, 4993, 5841, 9089, 10961, 11089, 12817, 4194, 4434, 5730, 9410, 10082, 10146, 12882, 323, 1155, 1715, 2163, 4259, 4387, 5091, 5555, 7011, 9107, 10835, 11267, 12979, 1652, 2532, 6260, 6548, 7092, 10340, 12148, 13332, 13444, 357, 1845, 2261, 7477, 7957, 10261, 11445, 2758, 2822, 5110, 7942, 10966, 12726, 14166, 151, 5847, 5991, 6455, 7063, 7991, 10551, 13927, 14327, 840, 4184, 4264, 5656, 6728, 7624, 9192, 10248, 10328, 11912, 761, 3369, 4505, 5241, 6201, 6441, 13081, 13145, 13225, 13929, 714, 1210, 2330, 7146, 8730, 9418, 10394, 11370, 12154, 13354, 14202, 2603, 3851, 4075, 5147, 5547, 6475, 8667, 10571, 10763, 12011, 13195, 14155, 748, 1836, 3372, 5436, 6092, 6556, 7356, 7660, 9708, 9740, 10332, 1069, 1805, 4189, 13565, 622, 4462, 4526, 5854, 7582, 7630, 9294, 9550, 10142, 10222, 10302, 10814, 13118, 5791, 5871, 6991, 10431, 12399]
WORE: [11234, 14003]
WORK: [2336, 8032, 1809, 6417, 9329, 14049, 9650, 10898, 67, 2003, 5027, 8803, 2420, 853, 1381, 1158, 1542, 10454, 1351, 2407, 5063, 10199, 12631, 12967, 8552, 12136, 12456, 13544, 2905, 1530, 4954, 7882, 8858, 9210, 10778, 12058, 7883, 796, 845, 8109, 6302, 607, 879, 2639]
WORKED: [13981]
WORKER: [10487]
WORKMANSHIP: [11239, 13832]
WORKS: [10240, 14052, 10010, 5567, 11071]
WORLD: [4688, 6368, 4433, 13507, 7060, 2277, 13429, 6297, 7066, 14347, 12108, 3661, 11101, 1711, 6047]
WORMS: [12643]
WORN: [9763, 3831, 11400, 3614]
WORSE: [849, 4145, 11826, 10918, 12474, 10555, 8012, 9020, 11341, 4670, 6734]
WORSHIP: [3009, 13697, 6370, 6434, 7430, 8631, 4536, 4552, 6584, 7448, 8043, 2668, 4013, 3663, 9055, 9727, 10623]
WORSHIPFUL: [2723, 7978]
WORST: [455]
WORTH: [5280, 372, 5205, 507, 12765]
WORTHLESS: [4232]
WORTHY: [3571]
WOULD: [2016, 2528, 3936, 6432, 9184, 10160, 10352, 10672, 10880, 11296, 13792, 641, 1185, 1185, 2801, 3105, 4705, 4817, 5393, 6065, 7153, 8225, 8801, 9537, 10177, 10881, 11089, 11329, 12049, 12209, 12481, 13569, 13777, 13905, 290, 610, 1826, 2434, 2978, 4930, 5170, 6578, 7458, 7842, 8786, 9186, 10882, 10914, 11138, 13890, 291, 595, 611, 1331, 1827, 2019, 2339, 2739, 2803, 3875, 4451, 4931, 5251, 6707, 8163, 8211, 8323, 9555, 10323, 10723, 11059, 11123, 11939, 12051, 12131, 12403, 13507, 13779, 1316, 1492, 4244, 4708, 6644, 7028, 7156, 7492, 7492, 8948, 10708, 11364, 11620, 12772, 14372, 901, 1269, 1397, 1429, 2805, 4309, 7445, 8069, 8501, 9205, 9957, 10629, 10709, 10869, 12069, 12405, 454, 742, 1302, 1334, 2134, 2310, 2982, 3126, 3526, 3926, 4422, 6886, 8518, 8950, 9814, 10134, 10934, 12022, 13398, 13430, 13526, 13590, 471, 1303, 1335, 2359, 2775, 3527, 4231, 4263, 4343, 4535, 4903, 5127, 6295, 7479, 7495, 7671, 7879, 8519, 8599, 8631, 8791, 9047, 9815, 11831, 11959, 12007, 12791, 13367, 13591, 13895, 14247, 1336, 1736, 2040, 2136, 2312, 3480, 4088, 4424, 5240, 5800, 6456, 6664, 7528, 7592, 10296, 10296, 10696, 10840, 11624, 12072, 12600, 12712, 13384, 13528, 14248, 14280, 2265, 2841, 3513, 4649, 5289, 6841, 6857, 7641, 7753, 8057, 9049, 10377, 10857, 12617, 12713, 13801, 650, 1290, 2522, 4362, 4378, 4986, 7322, 7626, 7962, 9818, 9850, 9882, 10378, 10698, 10890, 11626, 11738, 12282, 12442, 13338, 13402, 315, 2395, 2827, 3003, 4235, 4651, 7019, 7067, 8555, 9019, 10251, 10731, 10875, 11643, 13483, 14171, 204, 636, 1084, 2204, 3004, 3116, 3932, 4092, 6700, 7596, 7884, 8012, 8252, 8796, 9020, 9852, 9964, 10508, 10860, 11148, 11308, 11740, 12060, 12860, 13420, 3933, 4381, 4653, 5213, 7453, 7485, 7741, 9021, 9437, 9453, 11757, 12061, 12141, 12301, 12653, 12653, 910, 1342, 1822, 4238, 4910, 5054, 6350, 6398, 6430, 6590, 7886, 8110, 8366, 9198, 9342, 10430, 11326, 11758, 13422, 13694, 287, 1887, 2015, 2671, 3103, 5855, 6255, 6383, 6431, 7439, 7455, 9455, 10175, 10911, 11295, 11759, 13567, 14063, 14175]
WOULDEST: [10993, 11521, 14129, 626, 4260, 5429, 231, 9639, 10215, 10857, 13817, 12138, 2315, 7740, 8812, 7678, 10990, 2159]
WOULDST: [3937, 6498, 2867, 2868, 9924, 13780, 4374, 743, 9591, 13847, 744, 10040, 1177, 7961, 12409, 11739, 3644, 8926, 3935, 5247]
WOUND: [3057, 8209, 12433, 290, 9426, 5539, 6629, 11495, 11416, 13400, 13852, 2190, 10974, 13134, 11487]
WOUNDED: [13042, 13060, 13061, 6075]
WOUNDS: [13957, 12521]
WOVE: [5540, 2697, 5162]
WOVEN: [7715, 11907, 7542, 1351, 4663, 1272, 3705, 13914, 9357, 7438, 3695]
WRAP: [3408, 8182, 7752, 8188, 7790]
WRAPPED: [7169, 519, 13287, 10671]
WRAPT: [1563]
WRATH: [5248, 12528, 7681, 11681, 5202, 7906, 6148, 6660, 1207, 14023, 600, 2792, 4248, 7912, 8120, 602, 619, 11435, 13387, 1196, 6652, 509, 11437, 7454]
WRATHFUL: [12979]
WREAKED: [14307, 6517]
WRECK: [2881, 7155, 4646, 7083]
WREST: [9587, 469]
WRESTLED: [2018, 9816]
WRESTLERS: [4269]
WRESTLING: [4130, 4228, 4104, 3983]
WRETCH: [10898]
WRETCHED: [9920, 10816, 3105, 8081, 5858, 8899, 2996, 10068, 13924, 12101, 12517, 11048, 2745, 2969, 6137, 8201, 12601, 3866, 6731, 7147, 9403, 11835, 9901, 3887, 10239, 10671, 12271]
WRIST: [13041, 14201, 10735]
WRITHED: [13267, 11238]
WRITHING: [7044, 7044, 11241]
WRONG: [1409, 8500]
WRONGED: [13083]
WROTH: [81, 9585, 12513, 7154, 8674, 803, 453, 198, 278, 3015, 3112, 89, 9529, 13561, 10250, 3931, 2876, 12076, 126, 10894]
WROUGHT: [6208, 9984, 10592, 13088, 13584, 14048, 3217, 4897, 8113, 12753, 13345, 13377, 1938, 2914, 6722, 8034, 8163, 12179, 14131, 1908, 597, 1765, 4565, 7301, 9301, 14277, 4422, 5862, 8454, 13110, 13542, 13670, 8551, 11239, 296, 6152, 13016, 2137, 6489, 6617, 8537, 10665, 2426, 3690, 3850, 4650, 11034, 11850, 13530, 9291, 4300, 4988, 6108, 7548, 10332, 4925, 6333, 10781, 13037, 13085, 606, 2078, 1535, 2335, 8127, 12527, 12847, 13663]
X: [5342]
XI: [6029, 2847]
XII: [6758]
XIII: [7281]
XIV: [7801, 2847]
XIX: [12258, 10389, 10952]
XV: [1862, 3032, 8413]
XVI: [9076, 617]
XVII: [12259, 9657]
XVIII: [10417]
XX: [5255, 11661]
XXI: [12164, 616]
XXII: [12258, 12259, 12695]
XXIII: [13307]
XXIV: [13738]
YARD: [4944, 5058, 2916, 5208, 5832, 9276, 2989, 8606]
YARN: [3265, 9777, 10801, 3702, 3547, 1775]
YE: [608, 896, 1904, 2112, 2768, 3824, 4224, 4224, 4272, 6416, 12432, 4001, 4001, 4337, 6913, 9281, 9425, 9425, 10801, 11137, 14273, 434, 610, 690, 4002, 4034, 4338, 12114, 12242, 12274, 12770, 13010, 13986, 14194, 771, 4019, 4099, 5859, 7699, 9043, 9539, 12243, 12403, 12771, 12771, 14259, 14275, 436, 692, 804, 1732, 2004, 4164, 4692, 5892, 6852, 7700, 8932, 12244, 12740, 12740, 613, 805, 1525, 1525, 1909, 4229, 9893, 12101, 12293, 12405, 12501, 12741, 12869, 13893, 438, 438, 694, 694, 1094, 2422, 3430, 5894, 6150, 7094, 7190, 7334, 11782, 12070, 12246, 12566, 13894, 599, 887, 1127, 1127, 1159, 1431, 2759, 3431, 3799, 4439, 5895, 6791, 6999, 10935, 11335, 11783, 12327, 12743, 440, 696, 888, 1128, 1256, 2104, 2424, 4344, 5896, 5928, 6792, 7000, 7336, 8952, 9864, 793, 2425, 3801, 5433, 5849, 5929, 7497, 9193, 9689, 10473, 12297, 12505, 12569, 13465, 13865, 14377, 554, 2762, 3834, 4618, 5850, 5994, 6154, 6410, 6794, 6938, 7098, 7146, 8682, 10922, 10922, 11434, 14378, 2475, 3835, 7067, 7339, 10235, 12059, 13227, 1788, 1900, 2636, 4380, 6012, 6012, 6540, 8508, 8508, 10924, 11068, 12076, 13372, 717, 1693, 1693, 2109, 4957, 4957, 6157, 6429, 7181, 10109, 10973, 10973, 11997, 12429, 12445, 13229, 13373, 14141, 638, 1694, 2478, 4030, 4958, 6830, 6942, 7182, 10846, 12910, 607, 639, 1695, 1903, 2431, 5823, 8943, 9007, 10799, 10799, 11135, 11823, 12031, 12271, 12447, 13519, 13807, 13871]
YEA: [2144, 2672, 2976, 3392, 4192, 7440, 10144, 10256, 11296, 17, 1169, 1329, 2881, 3697, 4817, 5249, 7745, 9873, 2706, 3666, 3826, 4882, 6338, 8210, 8626, 14354, 1443, 1795, 3619, 5363, 6419, 8163, 8739, 8947, 10595, 11939, 13123, 13779, 14083, 260, 3140, 6468, 7668, 8452, 11684, 13284, 14020, 85, 725, 1413, 1749, 2069, 3637, 3717, 4533, 7637, 7701, 8597, 9125, 9157, 11557, 454, 1942, 2310, 3526, 4214, 6246, 7526, 8246, 8838, 10166, 11510, 11718, 1319, 2791, 3271, 4087, 6231, 6743, 7783, 7911, 9351, 12279, 13207, 13463, 712, 1720, 1896, 2088, 3816, 8312, 12584, 665, 2281, 4009, 6169, 10441, 13801, 13961, 1866, 8330, 10634, 12730, 1403, 4731, 5083, 7851, 8091, 9387, 10379, 11707, 2076, 5836, 6972, 8028, 11308, 221, 893, 9437, 10829, 12301, 190, 3358, 7326, 9406, 9790, 11342, 11854, 2975, 3247, 4143, 6383, 6703, 6735, 9215, 11375]
YEAN: [1725]
YEAR: [32, 5904, 9328, 11152, 11232, 6305, 8033, 8130, 3715, 8131, 9619, 11523, 341, 629, 6357, 13509, 13909, 2230, 2310, 12422, 3879, 10055, 1384, 1400, 5352, 13432, 11449, 1722, 11322, 14090, 14106, 1483, 2747, 7995, 8699, 8124, 8956, 733, 781, 654, 1726, 5902, 6430, 8078, 9102]
YEARLING: [1472]
YEARNING: [13713, 1755, 76, 10302]
YEARNS: [816, 10627]
YEARS: [11184, 14066, 9795, 13907, 1381, 3877, 12981, 1175, 1178, 2746, 8122, 1099, 652, 6764, 349, 7725, 8269, 8078, 11150, 11375]
YELLOW: [3701, 5621, 7752, 7787]
YELPING: [7840, 6855]
YESTERDAY: [14176, 3397, 9145, 7276, 1454, 831, 2383]
YET: [112, 1728, 1936, 2176, 5200, 6448, 8752, 8928, 9024, 9312, 11632, 11936, 12992, 13040, 13088, 13600, 849, 913, 1473, 2865, 3041, 4225, 6225, 6913, 7121, 8033, 8177, 9121, 9169, 10689, 11233, 11905, 12465, 12705, 12897, 13201, 14209, 1762, 2754, 3042, 3106, 3394, 4546, 5506, 6130, 6210, 6498, 7170, 7570, 9410, 11554, 11618, 13618, 2483, 2995, 3827, 4195, 4243, 5027, 5571, 6979, 6995, 7635, 8051, 8835, 9411, 9939, 10099, 10307, 10531, 11171, 11923, 13219, 13347, 14291, 1268, 4804, 4932, 4964, 5300, 5412, 6164, 6420, 7908, 8436, 9060, 9796, 11172, 11348, 12292, 13684, 13956, 341, 581, 821, 1333, 4853, 6117, 8149, 9397, 10309, 11045, 11285, 11797, 13333, 14037, 262, 550, 1222, 2582, 2598, 3574, 4198, 4694, 4854, 5942, 6150, 8870, 9254, 9638, 11318, 12054, 12326, 13382, 13686, 14022, 471, 1495, 2279, 2567, 3063, 5079, 5879, 6391, 6567, 8007, 8135, 8839, 9095, 9943, 10263, 10615, 11175, 12023, 12743, 14263, 1288, 1784, 2200, 2264, 2504, 2776, 3016, 3832, 4184, 4744, 5064, 5496, 6088, 6216, 6216, 6536, 6584, 6824, 7368, 7768, 9432, 9496, 10024, 11368, 12296, 13448, 13576, 13928, 889, 1737, 2185, 3049, 3657, 3721, 6105, 6521, 8041, 8857, 9577, 9785, 10425, 10745, 10841, 11385, 11801, 13641, 13673, 14041, 14297, 378, 506, 666, 762, 2314, 3402, 3802, 3930, 4346, 5338, 6074, 7530, 8714, 14314, 1931, 2747, 3115, 5595, 6235, 6315, 7419, 8203, 10299, 10363, 10715, 10811, 11019, 12283, 13019, 13083, 13547, 14091, 60, 284, 780, 2492, 2492, 2956, 4380, 4636, 4812, 6540, 7020, 9244, 11068, 11260, 12252, 13164, 477, 989, 3389, 4157, 5549, 6157, 6733, 8829, 9341, 10701, 11069, 11245, 12189, 12509, 12685, 12781, 13389, 13581, 14141, 670, 750, 1438, 1742, 2110, 2782, 5662, 5998, 6366, 6526, 6942, 7054, 7582, 8862, 8990, 10334, 10894, 13102, 14062, 14094, 239, 815, 2255, 2879, 5039, 5551, 6335, 6543, 7151, 7679, 7855, 10399, 10623, 11535, 13695]
YIELD: [1728, 4448, 12277, 12762, 6891, 3004, 7085, 10879]
YIELDED: [8276, 4472, 2765]
YIELDING: [6608]
YIELDS: [1893]
YOKE: [1600, 1474, 1586, 7381, 1671, 8471, 8584, 1657, 3290, 8636, 10877, 8511]
YOKED: [3492, 8644, 1591, 1608]
YOKING: [3333]
YONDER: [12546, 14034, 10468, 4261, 950, 3894, 199, 7688, 14088, 10713, 12825, 10890, 3805, 10829, 4622, 8622, 5679, 7967]
YOU: [576, 4864, 12448, 12912, 49, 1697, 1905, 6401, 7297, 754, 1186, 2098, 9010, 9426, 13986, 771, 1731, 9283, 9539, 580, 7700, 12324, 12868, 5893, 6406, 12294, 12406, 12470, 12470, 12550, 5895, 7095, 7191, 8327, 8951, 11847, 12247, 12247, 12423, 12775, 600, 6408, 7064, 7336, 7912, 9560, 10488, 2105, 6793, 9865, 13465, 13865, 602, 3450, 3754, 3834, 5850, 11434, 12074, 12122, 12426, 12746, 13866, 891, 1307, 12123, 812, 4444, 10924, 12428, 12428, 13228, 6205, 6941, 10925, 13869, 10974, 13870, 1695, 8943, 12431]
YOUNG: [4224, 9168, 2465, 12929, 10018, 12114, 9331, 5172, 7780, 7877, 12325, 12389, 13845, 3542, 4054, 4950, 8374, 9510, 5063, 9319, 10247, 3608, 3912, 5673, 7546, 459, 7547, 8011, 10251, 8332, 10428, 1069, 10909, 13597, 558, 1566, 3390, 3951, 7263, 8399, 8815, 12383, 13807]
YOUNGER: [1185, 5813, 11189, 10486, 12614, 3912, 1449, 10458, 1099, 748, 12540]
YOUNGEST: [6000, 8850, 3652, 1573, 6345]
YOUNGLINGS: [4923, 9340]
YOUR: [896, 5968, 8944, 13232, 689, 8945, 13009, 9954, 10802, 12770, 14194, 14274, 435, 691, 5859, 10723, 12787, 13875, 6852, 12740, 14276, 1733, 4997, 12245, 12245, 14197, 598, 886, 4694, 5894, 11782, 12102, 12102, 12102, 12406, 599, 3895, 4167, 5896, 5928, 7000, 9192, 9864, 601, 601, 2105, 2425, 5897, 6409, 12505, 13465, 14377, 602, 5898, 10922, 12074, 5851, 5899, 6411, 8939, 8939, 12971, 2476, 3452, 6012, 7340, 7340, 8508, 12508, 1789, 10925, 11997, 11997, 12429, 13373, 13869, 1694, 3886, 2431, 5567]
YOURS: [690, 9043, 5434]
YOURSELVES: [609, 690, 435, 819, 1255, 12298]
YOUTH: [4144, 4113, 4195, 6387, 901, 13560, 1465, 13529, 506, 2522, 5674, 910, 9199]
YOUTHS: [8592, 11136, 2369, 3697, 4033, 12131, 13893, 9864, 12600, 6073, 1003, 2379, 3243, 12731, 4044, 4428, 4029, 12653, 638, 13454, 4703]
ZACYNTHUS: [9376, 11127, 298, 9226, 4700]
ZENITH: [7111, 8349]
ZETHUS: [6321, 11569]
ZEUS: [336, 1664, 1696, 2016, 3072, 3328, 6320, 6368, 6384, 8080, 8320, 8656, 9840, 10048, 11312, 13712, 1841, 2513, 4081, 4337, 4977, 4977, 5009, 5873, 6097, 6657, 6833, 8353, 8977, 9953, 10401, 11185, 13793, 82, 2274, 2738, 2770, 4370, 5842, 5890, 7218, 8546, 9458, 10194, 11714, 12194, 13010, 14338, 563, 1091, 3379, 3939, 4339, 4563, 7235, 7443, 7699, 7875, 8147, 11811, 14131, 84, 932, 1892, 2500, 3956, 3956, 7348, 7428, 7636, 8612, 10564, 11780, 949, 1365, 1781, 1989, 4373, 6485, 6517, 7237, 7317, 7461, 7717, 8517, 8629, 9029, 9733, 10181, 10709, 12085, 12901, 454, 870, 1222, 1430, 1654, 1718, 1958, 4534, 7190, 7430, 7702, 7910, 8166, 8598, 8630, 9558, 9814, 11062, 11782, 12006, 13110, 14294, 14374, 407, 439, 695, 2631, 2743, 3063, 3463, 3991, 5927, 6327, 6359, 7111, 7511, 7991, 8231, 8295, 9431, 11319, 14391, 24, 1032, 1656, 2792, 4984, 6136, 7656, 8072, 8120, 8840, 11384, 11800, 12408, 12952, 13688, 1193, 1801, 3097, 3417, 3881, 6313, 7001, 8105, 8137, 8713, 10089, 11289, 11753, 14361, 602, 778, 1594, 2282, 2778, 3770, 4714, 4842, 4970, 4986, 5226, 5946, 6730, 8826, 8986, 9722, 11162, 11738, 11786, 12666, 13162, 13930, 14394, 43, 699, 1819, 1883, 2651, 2827, 3867, 4267, 5323, 5659, 7723, 8251, 8779, 11387, 13883, 1468, 1900, 2172, 2636, 2780, 3068, 4732, 4748, 6668, 6716, 7868, 7948, 8492, 9388, 11788, 11916, 13772, 14172, 1421, 1677, 2077, 2797, 2973, 3645, 3789, 3933, 4493, 4797, 5085, 5821, 6733, 7181, 7581, 8141, 9581, 13853, 14141, 14301, 14365, 1214, 1710, 1902, 2766, 2862, 3438, 3566, 5150, 6558, 7198, 7918, 8110, 8990, 11390, 11950, 14398, 1487, 2399, 2751, 3567, 6271, 6687, 7535, 8143, 8975, 9279, 10751, 12207, 13567, 13663]
